3zd5_PBI_URA
     RDKit          3D

 37 38  0  0  0  0  0  0  0  0999 V2000
  -13.6820   -3.0950   -4.0500 C   0  0  0  0  0  0  0  0  0  0  0  0
  -14.3330   -1.8960   -4.5550 N   0  0  0  0  0  0  0  0  0  0  0  0
  -15.6850   -1.7330   -4.3260 C   0  0  0  0  0  0  0  0  0  0  0  0
  -16.3870   -0.6720   -4.7450 C   0  0  0  0  0  0  0  0  0  0  0  0
  -17.7430   -0.5880   -4.5220 N   0  0  0  0  0  0  0  0  0  0  0  0
  -18.4860   -1.3570   -5.2490 C   0  0  0  0  0  0  0  0  0  0  0  0
  -19.8860   -0.9390   -5.6080 C   0  0  0  0  0  0  0  0  0  0  0  0
  -19.9480    0.5840   -5.7160 C   0  0  0  0  0  0  0  0  0  0  0  0
  -20.3120    1.0670   -7.1230 C   0  0  0  0  0  0  0  0  0  0  0  0
  -19.2870    1.9950   -7.7250 C   0  0  0  0  0  0  0  0  0  0  0  0
  -18.4610    2.7730   -6.9020 C   0  0  0  0  0  0  0  0  0  0  0  0
  -17.5200    3.6390   -7.4590 C   0  0  0  0  0  0  0  0  0  0  0  0
  -17.3950    3.7380   -8.8440 C   0  0  0  0  0  0  0  0  0  0  0  0
  -18.2100    2.9690   -9.6710 C   0  0  0  0  0  0  0  0  0  0  0  0
  -19.1520    2.1020   -9.1170 C   0  0  0  0  0  0  0  0  0  0  0  0
  -15.6290    0.3590   -5.5400 C   0  0  0  0  0  0  0  0  0  0  0  0
  -16.1590    1.3710   -5.9920 O   0  0  0  0  0  0  0  0  0  0  0  0
  -14.2950    0.1180   -5.7240 N   0  0  0  0  0  0  0  0  0  0  0  0
  -13.5940   -0.9670   -5.2730 C   0  0  0  0  0  0  0  0  0  0  0  0
  -12.3930   -1.0650   -5.5120 O   0  0  0  0  0  0  0  0  0  0  0  0
  -13.6897   -3.0808   -2.9501 H   0  0  0  0  0  0  0  0  0  0  0  0
  -14.2213   -3.9839   -4.4090 H   0  0  0  0  0  0  0  0  0  0  0  0
  -12.6427   -3.1268   -4.4090 H   0  0  0  0  0  0  0  0  0  0  0  0
  -16.2153   -2.5188   -3.7680 H   0  0  0  0  0  0  0  0  0  0  0  0
  -18.0931   -2.3203   -5.6063 H   0  0  0  0  0  0  0  0  0  0  0  0
  -20.1671   -1.3872   -6.5724 H   0  0  0  0  0  0  0  0  0  0  0  0
  -20.5832   -1.2812   -4.8290 H   0  0  0  0  0  0  0  0  0  0  0  0
  -20.7057    0.9554   -5.0104 H   0  0  0  0  0  0  0  0  0  0  0  0
  -18.9458    0.9727   -5.4824 H   0  0  0  0  0  0  0  0  0  0  0  0
  -20.4130    0.1885   -7.7773 H   0  0  0  0  0  0  0  0  0  0  0  0
  -21.2507    1.6340   -7.0374 H   0  0  0  0  0  0  0  0  0  0  0  0
  -18.5556    2.7000   -5.8085 H   0  0  0  0  0  0  0  0  0  0  0  0
  -16.8757    4.2446   -6.8046 H   0  0  0  0  0  0  0  0  0  0  0  0
  -16.6539    4.4223   -9.2828 H   0  0  0  0  0  0  0  0  0  0  0  0
  -18.1107    3.0455  -10.7638 H   0  0  0  0  0  0  0  0  0  0  0  0
  -19.7931    1.4983   -9.7761 H   0  0  0  0  0  0  0  0  0  0  0  0
  -13.7770    0.7980   -6.2560 H   0  0  0  0  0  0  0  0  0  0  0  0
  1  2  1  0
  2  3  1  0
  3  4  2  0
  4  5  1  0
  5  6  2  0
  6  7  1  0
  7  8  1  0
  8  9  1  0
  9 10  1  0
 10 11  2  0
 11 12  1  0
 12 13  2  0
 13 14  1  0
 14 15  2  0
  4 16  1  0
 16 17  2  0
 16 18  1  0
 18 19  1  0
 19 20  2  0
 19  2  1  0
 15 10  1  0
  1 21  1  0
  1 22  1  0
  1 23  1  0
  3 24  1  0
  6 25  1  0
  7 26  1  0
  7 27  1  0
  8 28  1  0
  8 29  1  0
  9 30  1  0
  9 31  1  0
 11 32  1  0
 12 33  1  0
 13 34  1  0
 14 35  1  0
 15 36  1  0
 18 37  1  0
M  END
>  <meeko>  (1) 
{"is_sidechain": [true], "free_energy": -2.91, "intermolecular_energy": 0.0, "internal_energy": -2.91, "cluster_size": 20, "cluster_id": 1, "rank_in_cluster": 15}

$$$$
3zd5_PBI_URA
     RDKit          3D

 37 38  0  0  0  0  0  0  0  0999 V2000
  -13.6820   -3.0950   -4.0500 C   0  0  0  0  0  0  0  0  0  0  0  0
  -14.3330   -1.8960   -4.5550 N   0  0  0  0  0  0  0  0  0  0  0  0
  -15.6850   -1.7330   -4.3260 C   0  0  0  0  0  0  0  0  0  0  0  0
  -16.3870   -0.6720   -4.7450 C   0  0  0  0  0  0  0  0  0  0  0  0
  -17.7430   -0.5880   -4.5220 N   0  0  0  0  0  0  0  0  0  0  0  0
  -18.4870   -1.3520   -5.2540 C   0  0  0  0  0  0  0  0  0  0  0  0
  -19.8900   -0.9350   -5.6020 C   0  0  0  0  0  0  0  0  0  0  0  0
  -19.9660    0.5890   -5.6650 C   0  0  0  0  0  0  0  0  0  0  0  0
  -20.3630    1.1100   -7.0490 C   0  0  0  0  0  0  0  0  0  0  0  0
  -19.3300    2.0170   -7.6710 C   0  0  0  0  0  0  0  0  0  0  0  0
  -18.4920    2.7980   -6.8640 C   0  0  0  0  0  0  0  0  0  0  0  0
  -17.5440    3.6450   -7.4380 C   0  0  0  0  0  0  0  0  0  0  0  0
  -17.4240    3.7210   -8.8260 C   0  0  0  0  0  0  0  0  0  0  0  0
  -18.2520    2.9470   -9.6370 C   0  0  0  0  0  0  0  0  0  0  0  0
  -19.2000    2.1000   -9.0640 C   0  0  0  0  0  0  0  0  0  0  0  0
  -15.6290    0.3590   -5.5400 C   0  0  0  0  0  0  0  0  0  0  0  0
  -16.1590    1.3710   -5.9920 O   0  0  0  0  0  0  0  0  0  0  0  0
  -14.2950    0.1180   -5.7240 N   0  0  0  0  0  0  0  0  0  0  0  0
  -13.5940   -0.9670   -5.2730 C   0  0  0  0  0  0  0  0  0  0  0  0
  -12.3930   -1.0650   -5.5120 O   0  0  0  0  0  0  0  0  0  0  0  0
  -13.6897   -3.0808   -2.9501 H   0  0  0  0  0  0  0  0  0  0  0  0
  -14.2213   -3.9839   -4.4090 H   0  0  0  0  0  0  0  0  0  0  0  0
  -12.6427   -3.1268   -4.4090 H   0  0  0  0  0  0  0  0  0  0  0  0
  -16.2153   -2.5188   -3.7680 H   0  0  0  0  0  0  0  0  0  0  0  0
  -18.0925   -2.3101   -5.6234 H   0  0  0  0  0  0  0  0  0  0  0  0
  -20.1663   -1.3568   -6.5796 H   0  0  0  0  0  0  0  0  0  0  0  0
  -20.5845   -1.3058   -4.8338 H   0  0  0  0  0  0  0  0  0  0  0  0
  -20.7115    0.9336   -4.9333 H   0  0  0  0  0  0  0  0  0  0  0  0
  -18.9619    0.9787   -5.4416 H   0  0  0  0  0  0  0  0  0  0  0  0
  -20.5151    0.2478   -7.7149 H   0  0  0  0  0  0  0  0  0  0  0  0
  -21.2792    1.7048   -6.9197 H   0  0  0  0  0  0  0  0  0  0  0  0
  -18.5825    2.7427   -5.7691 H   0  0  0  0  0  0  0  0  0  0  0  0
  -16.8904    4.2536   -6.7958 H   0  0  0  0  0  0  0  0  0  0  0  0
  -16.6777    4.3902   -9.2791 H   0  0  0  0  0  0  0  0  0  0  0  0
  -18.1575    3.0044  -10.7314 H   0  0  0  0  0  0  0  0  0  0  0  0
  -19.8507    1.4924   -9.7101 H   0  0  0  0  0  0  0  0  0  0  0  0
  -13.7770    0.7980   -6.2560 H   0  0  0  0  0  0  0  0  0  0  0  0
  1  2  1  0
  2  3  1  0
  3  4  2  0
  4  5  1  0
  5  6  2  0
  6  7  1  0
  7  8  1  0
  8  9  1  0
  9 10  1  0
 10 11  2  0
 11 12  1  0
 12 13  2  0
 13 14  1  0
 14 15  2  0
  4 16  1  0
 16 17  2  0
 16 18  1  0
 18 19  1  0
 19 20  2  0
 19  2  1  0
 15 10  1  0
  1 21  1  0
  1 22  1  0
  1 23  1  0
  3 24  1  0
  6 25  1  0
  7 26  1  0
  7 27  1  0
  8 28  1  0
  8 29  1  0
  9 30  1  0
  9 31  1  0
 11 32  1  0
 12 33  1  0
 13 34  1  0
 14 35  1  0
 15 36  1  0
 18 37  1  0
M  END
>  <meeko>  (2) 
{"is_sidechain": [true], "free_energy": -2.91, "intermolecular_energy": 0.0, "internal_energy": -2.91, "cluster_size": 20, "cluster_id": 1, "rank_in_cluster": 17}

$$$$
3zd5_PBI_URA
     RDKit          3D

 37 38  0  0  0  0  0  0  0  0999 V2000
  -13.6820   -3.0950   -4.0500 C   0  0  0  0  0  0  0  0  0  0  0  0
  -14.3330   -1.8960   -4.5550 N   0  0  0  0  0  0  0  0  0  0  0  0
  -15.6850   -1.7330   -4.3260 C   0  0  0  0  0  0  0  0  0  0  0  0
  -16.3870   -0.6720   -4.7460 C   0  0  0  0  0  0  0  0  0  0  0  0
  -17.7430   -0.5880   -4.5230 N   0  0  0  0  0  0  0  0  0  0  0  0
  -18.4860   -1.3570   -5.2500 C   0  0  0  0  0  0  0  0  0  0  0  0
  -19.9140   -0.9810   -5.5370 C   0  0  0  0  0  0  0  0  0  0  0  0
  -19.9450    0.3270   -6.3260 C   0  0  0  0  0  0  0  0  0  0  0  0
  -21.1680    0.4450   -7.2380 C   0  0  0  0  0  0  0  0  0  0  0  0
  -20.8520    1.0090   -8.6010 C   0  0  0  0  0  0  0  0  0  0  0  0
  -19.7270    1.8230   -8.7900 C   0  0  0  0  0  0  0  0  0  0  0  0
  -19.4400    2.3530  -10.0480 C   0  0  0  0  0  0  0  0  0  0  0  0
  -20.2750    2.0770  -11.1300 C   0  0  0  0  0  0  0  0  0  0  0  0
  -21.3950    1.2670  -10.9530 C   0  0  0  0  0  0  0  0  0  0  0  0
  -21.6840    0.7360   -9.6960 C   0  0  0  0  0  0  0  0  0  0  0  0
  -15.6290    0.3590   -5.5400 C   0  0  0  0  0  0  0  0  0  0  0  0
  -16.1590    1.3710   -5.9920 O   0  0  0  0  0  0  0  0  0  0  0  0
  -14.2950    0.1180   -5.7240 N   0  0  0  0  0  0  0  0  0  0  0  0
  -13.5940   -0.9670   -5.2720 C   0  0  0  0  0  0  0  0  0  0  0  0
  -12.3930   -1.0650   -5.5120 O   0  0  0  0  0  0  0  0  0  0  0  0
  -13.6897   -3.0808   -2.9501 H   0  0  0  0  0  0  0  0  0  0  0  0
  -14.2213   -3.9839   -4.4090 H   0  0  0  0  0  0  0  0  0  0  0  0
  -12.6427   -3.1268   -4.4090 H   0  0  0  0  0  0  0  0  0  0  0  0
  -16.2153   -2.5183   -3.7674 H   0  0  0  0  0  0  0  0  0  0  0  0
  -18.0722   -2.2900   -5.6603 H   0  0  0  0  0  0  0  0  0  0  0  0
  -20.3917   -1.7770   -6.1270 H   0  0  0  0  0  0  0  0  0  0  0  0
  -20.4577   -0.8518   -4.5895 H   0  0  0  0  0  0  0  0  0  0  0  0
  -19.9559    1.1657   -5.6143 H   0  0  0  0  0  0  0  0  0  0  0  0
  -19.0521    0.3457   -6.9681 H   0  0  0  0  0  0  0  0  0  0  0  0
  -21.6027   -0.5570   -7.3684 H   0  0  0  0  0  0  0  0  0  0  0  0
  -21.8659    1.1436   -6.7534 H   0  0  0  0  0  0  0  0  0  0  0  0
  -19.0653    2.0457   -7.9399 H   0  0  0  0  0  0  0  0  0  0  0  0
  -18.5537    2.9896  -10.1866 H   0  0  0  0  0  0  0  0  0  0  0  0
  -20.0501    2.4977  -12.1212 H   0  0  0  0  0  0  0  0  0  0  0  0
  -22.0527    1.0459  -11.8065 H   0  0  0  0  0  0  0  0  0  0  0  0
  -22.5707    0.0987   -9.5629 H   0  0  0  0  0  0  0  0  0  0  0  0
  -13.7770    0.7990   -6.2560 H   0  0  0  0  0  0  0  0  0  0  0  0
  1  2  1  0
  2  3  1  0
  3  4  2  0
  4  5  1  0
  5  6  2  0
  6  7  1  0
  7  8  1  0
  8  9  1  0
  9 10  1  0
 10 11  2  0
 11 12  1  0
 12 13  2  0
 13 14  1  0
 14 15  2  0
  4 16  1  0
 16 17  2  0
 16 18  1  0
 18 19  1  0
 19 20  2  0
 19  2  1  0
 15 10  1  0
  1 21  1  0
  1 22  1  0
  1 23  1  0
  3 24  1  0
  6 25  1  0
  7 26  1  0
  7 27  1  0
  8 28  1  0
  8 29  1  0
  9 30  1  0
  9 31  1  0
 11 32  1  0
 12 33  1  0
 13 34  1  0
 14 35  1  0
 15 36  1  0
 18 37  1  0
M  END
>  <meeko>  (3) 
{"is_sidechain": [true], "free_energy": -2.94, "intermolecular_energy": 0.0, "internal_energy": -2.94, "cluster_size": 20, "cluster_id": 1, "rank_in_cluster": 4}

$$$$
3zd5_PBI_URA
     RDKit          3D

 37 38  0  0  0  0  0  0  0  0999 V2000
  -13.6820   -3.0950   -4.0500 C   0  0  0  0  0  0  0  0  0  0  0  0
  -14.3330   -1.8960   -4.5550 N   0  0  0  0  0  0  0  0  0  0  0  0
  -15.6850   -1.7330   -4.3260 C   0  0  0  0  0  0  0  0  0  0  0  0
  -16.3870   -0.6720   -4.7450 C   0  0  0  0  0  0  0  0  0  0  0  0
  -17.7430   -0.5880   -4.5230 N   0  0  0  0  0  0  0  0  0  0  0  0
  -18.4860   -1.3580   -5.2480 C   0  0  0  0  0  0  0  0  0  0  0  0
  -19.9050   -0.9680   -5.5590 C   0  0  0  0  0  0  0  0  0  0  0  0
  -19.9110    0.3430   -6.3430 C   0  0  0  0  0  0  0  0  0  0  0  0
  -21.1570    0.5110   -7.2160 C   0  0  0  0  0  0  0  0  0  0  0  0
  -20.8640    1.0720   -8.5850 C   0  0  0  0  0  0  0  0  0  0  0  0
  -21.6940    0.7670   -9.6720 C   0  0  0  0  0  0  0  0  0  0  0  0
  -21.4170    1.2780  -10.9400 C   0  0  0  0  0  0  0  0  0  0  0  0
  -20.3060    2.0980  -11.1360 C   0  0  0  0  0  0  0  0  0  0  0  0
  -19.4750    2.4090  -10.0620 C   0  0  0  0  0  0  0  0  0  0  0  0
  -19.7510    1.8990   -8.7930 C   0  0  0  0  0  0  0  0  0  0  0  0
  -15.6290    0.3590   -5.5400 C   0  0  0  0  0  0  0  0  0  0  0  0
  -16.1590    1.3710   -5.9920 O   0  0  0  0  0  0  0  0  0  0  0  0
  -14.2950    0.1180   -5.7240 N   0  0  0  0  0  0  0  0  0  0  0  0
  -13.5940   -0.9670   -5.2730 C   0  0  0  0  0  0  0  0  0  0  0  0
  -12.3930   -1.0650   -5.5120 O   0  0  0  0  0  0  0  0  0  0  0  0
  -13.6897   -3.0808   -2.9501 H   0  0  0  0  0  0  0  0  0  0  0  0
  -14.2213   -3.9839   -4.4090 H   0  0  0  0  0  0  0  0  0  0  0  0
  -12.6427   -3.1268   -4.4090 H   0  0  0  0  0  0  0  0  0  0  0  0
  -16.2153   -2.5188   -3.7680 H   0  0  0  0  0  0  0  0  0  0  0  0
  -18.0790   -2.3022   -5.6391 H   0  0  0  0  0  0  0  0  0  0  0  0
  -20.3791   -1.7575   -6.1606 H   0  0  0  0  0  0  0  0  0  0  0  0
  -20.4641   -0.8374   -4.6207 H   0  0  0  0  0  0  0  0  0  0  0  0
  -19.8677    1.1788   -5.6291 H   0  0  0  0  0  0  0  0  0  0  0  0
  -19.0386    0.3302   -7.0129 H   0  0  0  0  0  0  0  0  0  0  0  0
  -21.6315   -0.4739   -7.3380 H   0  0  0  0  0  0  0  0  0  0  0  0
  -21.8135    1.2314   -6.7060 H   0  0  0  0  0  0  0  0  0  0  0  0
  -22.5709    0.1195   -9.5242 H   0  0  0  0  0  0  0  0  0  0  0  0
  -22.0757    1.0339  -11.7865 H   0  0  0  0  0  0  0  0  0  0  0  0
  -20.0863    2.4984  -12.1367 H   0  0  0  0  0  0  0  0  0  0  0  0
  -18.5998    3.0577  -10.2147 H   0  0  0  0  0  0  0  0  0  0  0  0
  -19.0904    2.1476   -7.9493 H   0  0  0  0  0  0  0  0  0  0  0  0
  -13.7770    0.7980   -6.2560 H   0  0  0  0  0  0  0  0  0  0  0  0
  1  2  1  0
  2  3  1  0
  3  4  2  0
  4  5  1  0
  5  6  2  0
  6  7  1  0
  7  8  1  0
  8  9  1  0
  9 10  1  0
 10 11  2  0
 11 12  1  0
 12 13  2  0
 13 14  1  0
 14 15  2  0
  4 16  1  0
 16 17  2  0
 16 18  1  0
 18 19  1  0
 19 20  2  0
 19  2  1  0
 15 10  1  0
  1 21  1  0
  1 22  1  0
  1 23  1  0
  3 24  1  0
  6 25  1  0
  7 26  1  0
  7 27  1  0
  8 28  1  0
  8 29  1  0
  9 30  1  0
  9 31  1  0
 11 32  1  0
 12 33  1  0
 13 34  1  0
 14 35  1  0
 15 36  1  0
 18 37  1  0
M  END
>  <meeko>  (4) 
{"is_sidechain": [true], "free_energy": -2.94, "intermolecular_energy": 0.0, "internal_energy": -2.94, "cluster_size": 20, "cluster_id": 1, "rank_in_cluster": 3}

$$$$
3zd5_PBI_URA
     RDKit          3D

 37 38  0  0  0  0  0  0  0  0999 V2000
  -13.6820   -3.0950   -4.0500 C   0  0  0  0  0  0  0  0  0  0  0  0
  -14.3330   -1.8960   -4.5550 N   0  0  0  0  0  0  0  0  0  0  0  0
  -15.6850   -1.7330   -4.3260 C   0  0  0  0  0  0  0  0  0  0  0  0
  -16.3870   -0.6720   -4.7460 C   0  0  0  0  0  0  0  0  0  0  0  0
  -17.7430   -0.5880   -4.5230 N   0  0  0  0  0  0  0  0  0  0  0  0
  -18.4870   -1.3530   -5.2540 C   0  0  0  0  0  0  0  0  0  0  0  0
  -19.9160   -0.9770   -5.5350 C   0  0  0  0  0  0  0  0  0  0  0  0
  -19.9490    0.3160   -6.3470 C   0  0  0  0  0  0  0  0  0  0  0  0
  -21.0500    0.3250   -7.4100 C   0  0  0  0  0  0  0  0  0  0  0  0
  -20.6790    1.0900   -8.6570 C   0  0  0  0  0  0  0  0  0  0  0  0
  -19.6180    2.0060   -8.6400 C   0  0  0  0  0  0  0  0  0  0  0  0
  -19.2810    2.7210   -9.7890 C   0  0  0  0  0  0  0  0  0  0  0  0
  -20.0010    2.5280  -10.9680 C   0  0  0  0  0  0  0  0  0  0  0  0
  -21.0560    1.6190  -10.9960 C   0  0  0  0  0  0  0  0  0  0  0  0
  -21.3950    0.9030   -9.8480 C   0  0  0  0  0  0  0  0  0  0  0  0
  -15.6290    0.3590   -5.5400 C   0  0  0  0  0  0  0  0  0  0  0  0
  -16.1590    1.3710   -5.9920 O   0  0  0  0  0  0  0  0  0  0  0  0
  -14.2950    0.1180   -5.7240 N   0  0  0  0  0  0  0  0  0  0  0  0
  -13.5940   -0.9670   -5.2720 C   0  0  0  0  0  0  0  0  0  0  0  0
  -12.3920   -1.0650   -5.5110 O   0  0  0  0  0  0  0  0  0  0  0  0
  -13.6897   -3.0808   -2.9501 H   0  0  0  0  0  0  0  0  0  0  0  0
  -14.2213   -3.9839   -4.4090 H   0  0  0  0  0  0  0  0  0  0  0  0
  -12.6427   -3.1268   -4.4090 H   0  0  0  0  0  0  0  0  0  0  0  0
  -16.2153   -2.5183   -3.7674 H   0  0  0  0  0  0  0  0  0  0  0  0
  -18.0729   -2.2824   -5.6719 H   0  0  0  0  0  0  0  0  0  0  0  0
  -20.4019   -1.7818   -6.1062 H   0  0  0  0  0  0  0  0  0  0  0  0
  -20.4509   -0.8287   -4.5853 H   0  0  0  0  0  0  0  0  0  0  0  0
  -20.1183    1.1578   -5.6594 H   0  0  0  0  0  0  0  0  0  0  0  0
  -18.9851    0.4015   -6.8700 H   0  0  0  0  0  0  0  0  0  0  0  0
  -21.2694   -0.7153   -7.6924 H   0  0  0  0  0  0  0  0  0  0  0  0
  -21.9211    0.8309   -6.9682 H   0  0  0  0  0  0  0  0  0  0  0  0
  -19.0467    2.1621   -7.7130 H   0  0  0  0  0  0  0  0  0  0  0  0
  -18.4468    3.4377   -9.7655 H   0  0  0  0  0  0  0  0  0  0  0  0
  -19.7361    3.0927  -11.8741 H   0  0  0  0  0  0  0  0  0  0  0  0
  -21.6233    1.4654  -11.9258 H   0  0  0  0  0  0  0  0  0  0  0  0
  -22.2295    0.1869   -9.8772 H   0  0  0  0  0  0  0  0  0  0  0  0
  -13.7770    0.7990   -6.2560 H   0  0  0  0  0  0  0  0  0  0  0  0
  1  2  1  0
  2  3  1  0
  3  4  2  0
  4  5  1  0
  5  6  2  0
  6  7  1  0
  7  8  1  0
  8  9  1  0
  9 10  1  0
 10 11  2  0
 11 12  1  0
 12 13  2  0
 13 14  1  0
 14 15  2  0
  4 16  1  0
 16 17  2  0
 16 18  1  0
 18 19  1  0
 19 20  2  0
 19  2  1  0
 15 10  1  0
  1 21  1  0
  1 22  1  0
  1 23  1  0
  3 24  1  0
  6 25  1  0
  7 26  1  0
  7 27  1  0
  8 28  1  0
  8 29  1  0
  9 30  1  0
  9 31  1  0
 11 32  1  0
 12 33  1  0
 13 34  1  0
 14 35  1  0
 15 36  1  0
 18 37  1  0
M  END
>  <meeko>  (5) 
{"is_sidechain": [true], "free_energy": -2.92, "intermolecular_energy": 0.0, "internal_energy": -2.92, "cluster_size": 20, "cluster_id": 1, "rank_in_cluster": 8}

$$$$
3zd5_PBI_URA
     RDKit          3D

 37 38  0  0  0  0  0  0  0  0999 V2000
  -13.6820   -3.0950   -4.0500 C   0  0  0  0  0  0  0  0  0  0  0  0
  -14.3330   -1.8960   -4.5550 N   0  0  0  0  0  0  0  0  0  0  0  0
  -15.6850   -1.7330   -4.3270 C   0  0  0  0  0  0  0  0  0  0  0  0
  -16.3870   -0.6720   -4.7460 C   0  0  0  0  0  0  0  0  0  0  0  0
  -17.7430   -0.5880   -4.5230 N   0  0  0  0  0  0  0  0  0  0  0  0
  -18.4860   -1.3570   -5.2500 C   0  0  0  0  0  0  0  0  0  0  0  0
  -19.8840   -0.9370   -5.6150 C   0  0  0  0  0  0  0  0  0  0  0  0
  -19.9430    0.5860   -5.7250 C   0  0  0  0  0  0  0  0  0  0  0  0
  -20.3100    1.0680   -7.1310 C   0  0  0  0  0  0  0  0  0  0  0  0
  -19.2910    2.0040   -7.7330 C   0  0  0  0  0  0  0  0  0  0  0  0
  -18.4670    2.7830   -6.9090 C   0  0  0  0  0  0  0  0  0  0  0  0
  -17.5320    3.6560   -7.4650 C   0  0  0  0  0  0  0  0  0  0  0  0
  -17.4120    3.7610   -8.8500 C   0  0  0  0  0  0  0  0  0  0  0  0
  -18.2250    2.9910   -9.6780 C   0  0  0  0  0  0  0  0  0  0  0  0
  -19.1610    2.1160   -9.1240 C   0  0  0  0  0  0  0  0  0  0  0  0
  -15.6290    0.3590   -5.5400 C   0  0  0  0  0  0  0  0  0  0  0  0
  -16.1590    1.3710   -5.9920 O   0  0  0  0  0  0  0  0  0  0  0  0
  -14.2950    0.1180   -5.7240 N   0  0  0  0  0  0  0  0  0  0  0  0
  -13.5940   -0.9660   -5.2720 C   0  0  0  0  0  0  0  0  0  0  0  0
  -12.3920   -1.0650   -5.5110 O   0  0  0  0  0  0  0  0  0  0  0  0
  -13.6897   -3.0808   -2.9501 H   0  0  0  0  0  0  0  0  0  0  0  0
  -14.2213   -3.9839   -4.4090 H   0  0  0  0  0  0  0  0  0  0  0  0
  -12.6427   -3.1268   -4.4090 H   0  0  0  0  0  0  0  0  0  0  0  0
  -16.2157   -2.5190   -3.7697 H   0  0  0  0  0  0  0  0  0  0  0  0
  -18.0944   -2.3224   -5.6031 H   0  0  0  0  0  0  0  0  0  0  0  0
  -20.1621   -1.3859   -6.5800 H   0  0  0  0  0  0  0  0  0  0  0  0
  -20.5848   -1.2771   -4.8384 H   0  0  0  0  0  0  0  0  0  0  0  0
  -20.6978    0.9600   -5.0176 H   0  0  0  0  0  0  0  0  0  0  0  0
  -18.9392    0.9727   -5.4950 H   0  0  0  0  0  0  0  0  0  0  0  0
  -20.4053    0.1895   -7.7861 H   0  0  0  0  0  0  0  0  0  0  0  0
  -21.2523    1.6289   -7.0444 H   0  0  0  0  0  0  0  0  0  0  0  0
  -18.5584    2.7053   -5.8156 H   0  0  0  0  0  0  0  0  0  0  0  0
  -16.8888    4.2621   -6.8101 H   0  0  0  0  0  0  0  0  0  0  0  0
  -16.6761    4.4512   -9.2882 H   0  0  0  0  0  0  0  0  0  0  0  0
  -18.1294    3.0725  -10.7708 H   0  0  0  0  0  0  0  0  0  0  0  0
  -19.8005    1.5107   -9.7832 H   0  0  0  0  0  0  0  0  0  0  0  0
  -13.7770    0.7990   -6.2550 H   0  0  0  0  0  0  0  0  0  0  0  0
  1  2  1  0
  2  3  1  0
  3  4  2  0
  4  5  1  0
  5  6  2  0
  6  7  1  0
  7  8  1  0
  8  9  1  0
  9 10  1  0
 10 11  2  0
 11 12  1  0
 12 13  2  0
 13 14  1  0
 14 15  2  0
  4 16  1  0
 16 17  2  0
 16 18  1  0
 18 19  1  0
 19 20  2  0
 19  2  1  0
 15 10  1  0
  1 21  1  0
  1 22  1  0
  1 23  1  0
  3 24  1  0
  6 25  1  0
  7 26  1  0
  7 27  1  0
  8 28  1  0
  8 29  1  0
  9 30  1  0
  9 31  1  0
 11 32  1  0
 12 33  1  0
 13 34  1  0
 14 35  1  0
 15 36  1  0
 18 37  1  0
M  END
>  <meeko>  (6) 
{"is_sidechain": [true], "free_energy": -2.92, "intermolecular_energy": 0.0, "internal_energy": -2.92, "cluster_size": 20, "cluster_id": 1, "rank_in_cluster": 12}

$$$$
3zd5_PBI_URA
     RDKit          3D

 37 38  0  0  0  0  0  0  0  0999 V2000
  -13.6820   -3.0950   -4.0500 C   0  0  0  0  0  0  0  0  0  0  0  0
  -14.3330   -1.8960   -4.5550 N   0  0  0  0  0  0  0  0  0  0  0  0
  -15.6850   -1.7330   -4.3260 C   0  0  0  0  0  0  0  0  0  0  0  0
  -16.3870   -0.6720   -4.7450 C   0  0  0  0  0  0  0  0  0  0  0  0
  -17.7430   -0.5880   -4.5220 N   0  0  0  0  0  0  0  0  0  0  0  0
  -18.4870   -1.3500   -5.2550 C   0  0  0  0  0  0  0  0  0  0  0  0
  -19.9230   -0.9850   -5.5140 C   0  0  0  0  0  0  0  0  0  0  0  0
  -19.9790    0.3280   -6.2940 C   0  0  0  0  0  0  0  0  0  0  0  0
  -21.1930    0.4180   -7.2230 C   0  0  0  0  0  0  0  0  0  0  0  0
  -20.8730    0.9950   -8.5790 C   0  0  0  0  0  0  0  0  0  0  0  0
  -19.7540    1.8210   -8.7550 C   0  0  0  0  0  0  0  0  0  0  0  0
  -19.4630    2.3630  -10.0060 C   0  0  0  0  0  0  0  0  0  0  0  0
  -20.2890    2.0870  -11.0960 C   0  0  0  0  0  0  0  0  0  0  0  0
  -21.4020    1.2660  -10.9330 C   0  0  0  0  0  0  0  0  0  0  0  0
  -21.6950    0.7230   -9.6820 C   0  0  0  0  0  0  0  0  0  0  0  0
  -15.6290    0.3590   -5.5400 C   0  0  0  0  0  0  0  0  0  0  0  0
  -16.1590    1.3710   -5.9920 O   0  0  0  0  0  0  0  0  0  0  0  0
  -14.2950    0.1180   -5.7240 N   0  0  0  0  0  0  0  0  0  0  0  0
  -13.5940   -0.9670   -5.2730 C   0  0  0  0  0  0  0  0  0  0  0  0
  -12.3930   -1.0650   -5.5120 O   0  0  0  0  0  0  0  0  0  0  0  0
  -13.6897   -3.0808   -2.9501 H   0  0  0  0  0  0  0  0  0  0  0  0
  -14.2213   -3.9839   -4.4090 H   0  0  0  0  0  0  0  0  0  0  0  0
  -12.6427   -3.1268   -4.4090 H   0  0  0  0  0  0  0  0  0  0  0  0
  -16.2153   -2.5188   -3.7680 H   0  0  0  0  0  0  0  0  0  0  0  0
  -18.0682   -2.2690   -5.6910 H   0  0  0  0  0  0  0  0  0  0  0  0
  -20.4043   -1.7814   -6.1006 H   0  0  0  0  0  0  0  0  0  0  0  0
  -20.4511   -0.8668   -4.5563 H   0  0  0  0  0  0  0  0  0  0  0  0
  -20.0235    1.1607   -5.5767 H   0  0  0  0  0  0  0  0  0  0  0  0
  -19.0778    0.3770   -6.9228 H   0  0  0  0  0  0  0  0  0  0  0  0
  -21.5999   -0.5944   -7.3629 H   0  0  0  0  0  0  0  0  0  0  0  0
  -21.9154    1.0964   -6.7456 H   0  0  0  0  0  0  0  0  0  0  0  0
  -19.1001    2.0433   -7.8988 H   0  0  0  0  0  0  0  0  0  0  0  0
  -18.5816    3.0086  -10.1338 H   0  0  0  0  0  0  0  0  0  0  0  0
  -20.0615    2.5172  -12.0825 H   0  0  0  0  0  0  0  0  0  0  0  0
  -22.0516    1.0452  -11.7928 H   0  0  0  0  0  0  0  0  0  0  0  0
  -22.5769    0.0770   -9.5599 H   0  0  0  0  0  0  0  0  0  0  0  0
  -13.7770    0.7980   -6.2560 H   0  0  0  0  0  0  0  0  0  0  0  0
  1  2  1  0
  2  3  1  0
  3  4  2  0
  4  5  1  0
  5  6  2  0
  6  7  1  0
  7  8  1  0
  8  9  1  0
  9 10  1  0
 10 11  2  0
 11 12  1  0
 12 13  2  0
 13 14  1  0
 14 15  2  0
  4 16  1  0
 16 17  2  0
 16 18  1  0
 18 19  1  0
 19 20  2  0
 19  2  1  0
 15 10  1  0
  1 21  1  0
  1 22  1  0
  1 23  1  0
  3 24  1  0
  6 25  1  0
  7 26  1  0
  7 27  1  0
  8 28  1  0
  8 29  1  0
  9 30  1  0
  9 31  1  0
 11 32  1  0
 12 33  1  0
 13 34  1  0
 14 35  1  0
 15 36  1  0
 18 37  1  0
M  END
>  <meeko>  (7) 
{"is_sidechain": [true], "free_energy": -2.93, "intermolecular_energy": 0.0, "internal_energy": -2.93, "cluster_size": 20, "cluster_id": 1, "rank_in_cluster": 7}

$$$$
3zd5_PBI_URA
     RDKit          3D

 37 38  0  0  0  0  0  0  0  0999 V2000
  -13.6820   -3.0950   -4.0500 C   0  0  0  0  0  0  0  0  0  0  0  0
  -14.3330   -1.8960   -4.5550 N   0  0  0  0  0  0  0  0  0  0  0  0
  -15.6850   -1.7330   -4.3260 C   0  0  0  0  0  0  0  0  0  0  0  0
  -16.3870   -0.6720   -4.7460 C   0  0  0  0  0  0  0  0  0  0  0  0
  -17.7430   -0.5880   -4.5230 N   0  0  0  0  0  0  0  0  0  0  0  0
  -18.4870   -1.3480   -5.2590 C   0  0  0  0  0  0  0  0  0  0  0  0
  -19.9230   -0.9810   -5.5170 C   0  0  0  0  0  0  0  0  0  0  0  0
  -19.9770    0.3040   -6.3420 C   0  0  0  0  0  0  0  0  0  0  0  0
  -21.0500    0.2670   -7.4340 C   0  0  0  0  0  0  0  0  0  0  0  0
  -20.6930    1.0730   -8.6580 C   0  0  0  0  0  0  0  0  0  0  0  0
  -21.3950    0.8930   -9.8570 C   0  0  0  0  0  0  0  0  0  0  0  0
  -21.0590    1.6300  -10.9930 C   0  0  0  0  0  0  0  0  0  0  0  0
  -20.0150    2.5540  -10.9420 C   0  0  0  0  0  0  0  0  0  0  0  0
  -19.3110    2.7410   -9.7540 C   0  0  0  0  0  0  0  0  0  0  0  0
  -19.6470    2.0050   -8.6170 C   0  0  0  0  0  0  0  0  0  0  0  0
  -15.6290    0.3590   -5.5400 C   0  0  0  0  0  0  0  0  0  0  0  0
  -16.1590    1.3710   -5.9920 O   0  0  0  0  0  0  0  0  0  0  0  0
  -14.2950    0.1180   -5.7240 N   0  0  0  0  0  0  0  0  0  0  0  0
  -13.5940   -0.9670   -5.2730 C   0  0  0  0  0  0  0  0  0  0  0  0
  -12.3930   -1.0650   -5.5120 O   0  0  0  0  0  0  0  0  0  0  0  0
  -13.6897   -3.0808   -2.9501 H   0  0  0  0  0  0  0  0  0  0  0  0
  -14.2213   -3.9839   -4.4090 H   0  0  0  0  0  0  0  0  0  0  0  0
  -12.6427   -3.1268   -4.4090 H   0  0  0  0  0  0  0  0  0  0  0  0
  -16.2153   -2.5183   -3.7674 H   0  0  0  0  0  0  0  0  0  0  0  0
  -18.0684   -2.2658   -5.6978 H   0  0  0  0  0  0  0  0  0  0  0  0
  -20.4159   -1.7937   -6.0706 H   0  0  0  0  0  0  0  0  0  0  0  0
  -20.4407   -0.8251   -4.5590 H   0  0  0  0  0  0  0  0  0  0  0  0
  -20.1921    1.1455   -5.6671 H   0  0  0  0  0  0  0  0  0  0  0  0
  -19.0029    0.4173   -6.8403 H   0  0  0  0  0  0  0  0  0  0  0  0
  -21.2008   -0.7793   -7.7382 H   0  0  0  0  0  0  0  0  0  0  0  0
  -21.9603    0.7136   -7.0075 H   0  0  0  0  0  0  0  0  0  0  0  0
  -22.2179    0.1645   -9.9031 H   0  0  0  0  0  0  0  0  0  0  0  0
  -21.6174    1.4825  -11.9292 H   0  0  0  0  0  0  0  0  0  0  0  0
  -19.7481    3.1338  -11.8378 H   0  0  0  0  0  0  0  0  0  0  0  0
  -18.4886    3.4704   -9.7124 H   0  0  0  0  0  0  0  0  0  0  0  0
  -19.0872    2.1573   -7.6824 H   0  0  0  0  0  0  0  0  0  0  0  0
  -13.7770    0.7990   -6.2560 H   0  0  0  0  0  0  0  0  0  0  0  0
  1  2  1  0
  2  3  1  0
  3  4  2  0
  4  5  1  0
  5  6  2  0
  6  7  1  0
  7  8  1  0
  8  9  1  0
  9 10  1  0
 10 11  2  0
 11 12  1  0
 12 13  2  0
 13 14  1  0
 14 15  2  0
  4 16  1  0
 16 17  2  0
 16 18  1  0
 18 19  1  0
 19 20  2  0
 19  2  1  0
 15 10  1  0
  1 21  1  0
  1 22  1  0
  1 23  1  0
  3 24  1  0
  6 25  1  0
  7 26  1  0
  7 27  1  0
  8 28  1  0
  8 29  1  0
  9 30  1  0
  9 31  1  0
 11 32  1  0
 12 33  1  0
 13 34  1  0
 14 35  1  0
 15 36  1  0
 18 37  1  0
M  END
>  <meeko>  (8) 
{"is_sidechain": [true], "free_energy": -2.92, "intermolecular_energy": 0.0, "internal_energy": -2.92, "cluster_size": 20, "cluster_id": 1, "rank_in_cluster": 13}

$$$$
3zd5_PBI_URA
     RDKit          3D

 37 38  0  0  0  0  0  0  0  0999 V2000
  -13.6820   -3.0950   -4.0500 C   0  0  0  0  0  0  0  0  0  0  0  0
  -14.3330   -1.8960   -4.5550 N   0  0  0  0  0  0  0  0  0  0  0  0
  -15.6850   -1.7330   -4.3270 C   0  0  0  0  0  0  0  0  0  0  0  0
  -16.3870   -0.6720   -4.7460 C   0  0  0  0  0  0  0  0  0  0  0  0
  -17.7430   -0.5880   -4.5230 N   0  0  0  0  0  0  0  0  0  0  0  0
  -18.4980   -1.1900   -5.3840 C   0  0  0  0  0  0  0  0  0  0  0  0
  -19.8720   -0.6590   -5.6890 C   0  0  0  0  0  0  0  0  0  0  0  0
  -19.8160    0.8640   -5.7890 C   0  0  0  0  0  0  0  0  0  0  0  0
  -20.1500    1.3830   -7.1900 C   0  0  0  0  0  0  0  0  0  0  0  0
  -19.0940    2.2960   -7.7630 C   0  0  0  0  0  0  0  0  0  0  0  0
  -18.9050    2.3830   -9.1490 C   0  0  0  0  0  0  0  0  0  0  0  0
  -17.9220    3.2190   -9.6780 C   0  0  0  0  0  0  0  0  0  0  0  0
  -17.1160    3.9760   -8.8280 C   0  0  0  0  0  0  0  0  0  0  0  0
  -17.2960    3.8970   -7.4490 C   0  0  0  0  0  0  0  0  0  0  0  0
  -18.2790    3.0620   -6.9170 C   0  0  0  0  0  0  0  0  0  0  0  0
  -15.6290    0.3590   -5.5400 C   0  0  0  0  0  0  0  0  0  0  0  0
  -16.1590    1.3710   -5.9920 O   0  0  0  0  0  0  0  0  0  0  0  0
  -14.2950    0.1180   -5.7240 N   0  0  0  0  0  0  0  0  0  0  0  0
  -13.5940   -0.9660   -5.2720 C   0  0  0  0  0  0  0  0  0  0  0  0
  -12.3920   -1.0650   -5.5110 O   0  0  0  0  0  0  0  0  0  0  0  0
  -13.6897   -3.0808   -2.9501 H   0  0  0  0  0  0  0  0  0  0  0  0
  -14.2213   -3.9839   -4.4090 H   0  0  0  0  0  0  0  0  0  0  0  0
  -12.6427   -3.1268   -4.4090 H   0  0  0  0  0  0  0  0  0  0  0  0
  -16.2157   -2.5190   -3.7697 H   0  0  0  0  0  0  0  0  0  0  0  0
  -18.1338   -2.0935   -5.8949 H   0  0  0  0  0  0  0  0  0  0  0  0
  -20.2234   -1.0769   -6.6439 H   0  0  0  0  0  0  0  0  0  0  0  0
  -20.5651   -0.9495   -4.8857 H   0  0  0  0  0  0  0  0  0  0  0  0
  -20.5379    1.2891   -5.0762 H   0  0  0  0  0  0  0  0  0  0  0  0
  -18.7848    1.1715   -5.5608 H   0  0  0  0  0  0  0  0  0  0  0  0
  -20.2657    0.5200   -7.8622 H   0  0  0  0  0  0  0  0  0  0  0  0
  -21.0745    1.9728   -7.1039 H   0  0  0  0  0  0  0  0  0  0  0  0
  -19.5367    1.7875   -9.8246 H   0  0  0  0  0  0  0  0  0  0  0  0
  -17.7822    3.2814  -10.7673 H   0  0  0  0  0  0  0  0  0  0  0  0
  -16.3398    4.6340   -9.2457 H   0  0  0  0  0  0  0  0  0  0  0  0
  -16.6615    4.4944   -6.7778 H   0  0  0  0  0  0  0  0  0  0  0  0
  -18.4156    3.0041   -5.8271 H   0  0  0  0  0  0  0  0  0  0  0  0
  -13.7770    0.7990   -6.2550 H   0  0  0  0  0  0  0  0  0  0  0  0
  1  2  1  0
  2  3  1  0
  3  4  2  0
  4  5  1  0
  5  6  2  0
  6  7  1  0
  7  8  1  0
  8  9  1  0
  9 10  1  0
 10 11  2  0
 11 12  1  0
 12 13  2  0
 13 14  1  0
 14 15  2  0
  4 16  1  0
 16 17  2  0
 16 18  1  0
 18 19  1  0
 19 20  2  0
 19  2  1  0
 15 10  1  0
  1 21  1  0
  1 22  1  0
  1 23  1  0
  3 24  1  0
  6 25  1  0
  7 26  1  0
  7 27  1  0
  8 28  1  0
  8 29  1  0
  9 30  1  0
  9 31  1  0
 11 32  1  0
 12 33  1  0
 13 34  1  0
 14 35  1  0
 15 36  1  0
 18 37  1  0
M  END
>  <meeko>  (9) 
{"is_sidechain": [true], "free_energy": -2.91, "intermolecular_energy": 0.0, "internal_energy": -2.91, "cluster_size": 20, "cluster_id": 1, "rank_in_cluster": 16}

$$$$
3zd5_PBI_URA
     RDKit          3D

 37 38  0  0  0  0  0  0  0  0999 V2000
  -13.6820   -3.0950   -4.0500 C   0  0  0  0  0  0  0  0  0  0  0  0
  -14.3330   -1.8960   -4.5550 N   0  0  0  0  0  0  0  0  0  0  0  0
  -15.6850   -1.7330   -4.3260 C   0  0  0  0  0  0  0  0  0  0  0  0
  -16.3870   -0.6720   -4.7450 C   0  0  0  0  0  0  0  0  0  0  0  0
  -17.7430   -0.5880   -4.5220 N   0  0  0  0  0  0  0  0  0  0  0  0
  -18.4860   -1.3630   -5.2430 C   0  0  0  0  0  0  0  0  0  0  0  0
  -19.8980   -0.9660   -5.5740 C   0  0  0  0  0  0  0  0  0  0  0  0
  -19.9050    0.4470   -6.1550 C   0  0  0  0  0  0  0  0  0  0  0  0
  -21.0880    0.7010   -7.0930 C   0  0  0  0  0  0  0  0  0  0  0  0
  -20.6790    1.1800   -8.4640 C   0  0  0  0  0  0  0  0  0  0  0  0
  -19.5570    2.0040   -8.6240 C   0  0  0  0  0  0  0  0  0  0  0  0
  -19.1840    2.4560   -9.8890 C   0  0  0  0  0  0  0  0  0  0  0  0
  -19.9300    2.0900  -11.0100 C   0  0  0  0  0  0  0  0  0  0  0  0
  -21.0460    1.2700  -10.8620 C   0  0  0  0  0  0  0  0  0  0  0  0
  -21.4200    0.8160   -9.5970 C   0  0  0  0  0  0  0  0  0  0  0  0
  -15.6290    0.3590   -5.5400 C   0  0  0  0  0  0  0  0  0  0  0  0
  -16.1590    1.3710   -5.9920 O   0  0  0  0  0  0  0  0  0  0  0  0
  -14.2950    0.1180   -5.7240 N   0  0  0  0  0  0  0  0  0  0  0  0
  -13.5940   -0.9670   -5.2730 C   0  0  0  0  0  0  0  0  0  0  0  0
  -12.3930   -1.0650   -5.5120 O   0  0  0  0  0  0  0  0  0  0  0  0
  -13.6897   -3.0808   -2.9501 H   0  0  0  0  0  0  0  0  0  0  0  0
  -14.2213   -3.9839   -4.4090 H   0  0  0  0  0  0  0  0  0  0  0  0
  -12.6427   -3.1268   -4.4090 H   0  0  0  0  0  0  0  0  0  0  0  0
  -16.2153   -2.5188   -3.7680 H   0  0  0  0  0  0  0  0  0  0  0  0
  -18.0834   -2.3164   -5.6156 H   0  0  0  0  0  0  0  0  0  0  0  0
  -20.3133   -1.6682   -6.3118 H   0  0  0  0  0  0  0  0  0  0  0  0
  -20.5103   -0.9907   -4.6605 H   0  0  0  0  0  0  0  0  0  0  0  0
  -19.9545    1.1673   -5.3251 H   0  0  0  0  0  0  0  0  0  0  0  0
  -18.9847    0.5649   -6.7459 H   0  0  0  0  0  0  0  0  0  0  0  0
  -21.6502   -0.2377   -7.2059 H   0  0  0  0  0  0  0  0  0  0  0  0
  -21.6939    1.4993   -6.6396 H   0  0  0  0  0  0  0  0  0  0  0  0
  -18.9655    2.2967   -7.7440 H   0  0  0  0  0  0  0  0  0  0  0  0
  -18.3009    3.1017  -10.0035 H   0  0  0  0  0  0  0  0  0  0  0  0
  -19.6374    2.4482  -12.0080 H   0  0  0  0  0  0  0  0  0  0  0  0
  -21.6342    0.9795  -11.7450 H   0  0  0  0  0  0  0  0  0  0  0  0
  -22.3022    0.1681   -9.4879 H   0  0  0  0  0  0  0  0  0  0  0  0
  -13.7770    0.7980   -6.2560 H   0  0  0  0  0  0  0  0  0  0  0  0
  1  2  1  0
  2  3  1  0
  3  4  2  0
  4  5  1  0
  5  6  2  0
  6  7  1  0
  7  8  1  0
  8  9  1  0
  9 10  1  0
 10 11  2  0
 11 12  1  0
 12 13  2  0
 13 14  1  0
 14 15  2  0
  4 16  1  0
 16 17  2  0
 16 18  1  0
 18 19  1  0
 19 20  2  0
 19  2  1  0
 15 10  1  0
  1 21  1  0
  1 22  1  0
  1 23  1  0
  3 24  1  0
  6 25  1  0
  7 26  1  0
  7 27  1  0
  8 28  1  0
  8 29  1  0
  9 30  1  0
  9 31  1  0
 11 32  1  0
 12 33  1  0
 13 34  1  0
 14 35  1  0
 15 36  1  0
 18 37  1  0
M  END
>  <meeko>  (10) 
{"is_sidechain": [true], "free_energy": -2.92, "intermolecular_energy": 0.0, "internal_energy": -2.92, "cluster_size": 20, "cluster_id": 1, "rank_in_cluster": 10}

$$$$
3zd5_PBI_URA
     RDKit          3D

 37 38  0  0  0  0  0  0  0  0999 V2000
  -13.6820   -3.0950   -4.0500 C   0  0  0  0  0  0  0  0  0  0  0  0
  -14.3330   -1.8960   -4.5550 N   0  0  0  0  0  0  0  0  0  0  0  0
  -15.6850   -1.7330   -4.3260 C   0  0  0  0  0  0  0  0  0  0  0  0
  -16.3870   -0.6710   -4.7450 C   0  0  0  0  0  0  0  0  0  0  0  0
  -17.7430   -0.5870   -4.5210 N   0  0  0  0  0  0  0  0  0  0  0  0
  -18.4870   -1.3510   -5.2520 C   0  0  0  0  0  0  0  0  0  0  0  0
  -19.9220   -0.9840   -5.5170 C   0  0  0  0  0  0  0  0  0  0  0  0
  -19.9720    0.2990   -6.3450 C   0  0  0  0  0  0  0  0  0  0  0  0
  -21.1840    0.3580   -7.2790 C   0  0  0  0  0  0  0  0  0  0  0  0
  -20.8810    0.9770   -8.6210 C   0  0  0  0  0  0  0  0  0  0  0  0
  -19.8010    1.8580   -8.7700 C   0  0  0  0  0  0  0  0  0  0  0  0
  -19.5270    2.4390  -10.0080 C   0  0  0  0  0  0  0  0  0  0  0  0
  -20.3300    2.1460  -11.1100 C   0  0  0  0  0  0  0  0  0  0  0  0
  -21.4050    1.2710  -10.9730 C   0  0  0  0  0  0  0  0  0  0  0  0
  -21.6810    0.6890   -9.7350 C   0  0  0  0  0  0  0  0  0  0  0  0
  -15.6290    0.3590   -5.5400 C   0  0  0  0  0  0  0  0  0  0  0  0
  -16.1600    1.3710   -5.9920 O   0  0  0  0  0  0  0  0  0  0  0  0
  -14.2950    0.1180   -5.7250 N   0  0  0  0  0  0  0  0  0  0  0  0
  -13.5940   -0.9670   -5.2730 C   0  0  0  0  0  0  0  0  0  0  0  0
  -12.3930   -1.0660   -5.5130 O   0  0  0  0  0  0  0  0  0  0  0  0
  -13.6897   -3.0808   -2.9501 H   0  0  0  0  0  0  0  0  0  0  0  0
  -14.2213   -3.9839   -4.4090 H   0  0  0  0  0  0  0  0  0  0  0  0
  -12.6427   -3.1268   -4.4090 H   0  0  0  0  0  0  0  0  0  0  0  0
  -16.2156   -2.5189   -3.7684 H   0  0  0  0  0  0  0  0  0  0  0  0
  -18.0692   -2.2732   -5.6820 H   0  0  0  0  0  0  0  0  0  0  0  0
  -20.4129   -1.7978   -6.0709 H   0  0  0  0  0  0  0  0  0  0  0  0
  -20.4437   -0.8258   -4.5616 H   0  0  0  0  0  0  0  0  0  0  0  0
  -20.0151    1.1580   -5.6592 H   0  0  0  0  0  0  0  0  0  0  0  0
  -19.0694    0.3220   -6.9733 H   0  0  0  0  0  0  0  0  0  0  0  0
  -21.5474   -0.6672   -7.4427 H   0  0  0  0  0  0  0  0  0  0  0  0
  -21.9368    0.9951   -6.7918 H   0  0  0  0  0  0  0  0  0  0  0  0
  -19.1647    2.0929   -7.9040 H   0  0  0  0  0  0  0  0  0  0  0  0
  -18.6769    3.1288  -10.1153 H   0  0  0  0  0  0  0  0  0  0  0  0
  -20.1147    2.6053  -12.0860 H   0  0  0  0  0  0  0  0  0  0  0  0
  -22.0376    1.0383  -11.8423 H   0  0  0  0  0  0  0  0  0  0  0  0
  -22.5321   -0.0004   -9.6329 H   0  0  0  0  0  0  0  0  0  0  0  0
  -13.7770    0.7980   -6.2570 H   0  0  0  0  0  0  0  0  0  0  0  0
  1  2  1  0
  2  3  1  0
  3  4  2  0
  4  5  1  0
  5  6  2  0
  6  7  1  0
  7  8  1  0
  8  9  1  0
  9 10  1  0
 10 11  2  0
 11 12  1  0
 12 13  2  0
 13 14  1  0
 14 15  2  0
  4 16  1  0
 16 17  2  0
 16 18  1  0
 18 19  1  0
 19 20  2  0
 19  2  1  0
 15 10  1  0
  1 21  1  0
  1 22  1  0
  1 23  1  0
  3 24  1  0
  6 25  1  0
  7 26  1  0
  7 27  1  0
  8 28  1  0
  8 29  1  0
  9 30  1  0
  9 31  1  0
 11 32  1  0
 12 33  1  0
 13 34  1  0
 14 35  1  0
 15 36  1  0
 18 37  1  0
M  END
>  <meeko>  (11) 
{"is_sidechain": [true], "free_energy": -2.93, "intermolecular_energy": 0.0, "internal_energy": -2.93, "cluster_size": 20, "cluster_id": 1, "rank_in_cluster": 6}

$$$$
3zd5_PBI_URA
     RDKit          3D

 37 38  0  0  0  0  0  0  0  0999 V2000
  -13.6820   -3.0950   -4.0500 C   0  0  0  0  0  0  0  0  0  0  0  0
  -14.3330   -1.8960   -4.5550 N   0  0  0  0  0  0  0  0  0  0  0  0
  -15.6850   -1.7330   -4.3260 C   0  0  0  0  0  0  0  0  0  0  0  0
  -16.3870   -0.6720   -4.7460 C   0  0  0  0  0  0  0  0  0  0  0  0
  -17.7430   -0.5880   -4.5230 N   0  0  0  0  0  0  0  0  0  0  0  0
  -18.4860   -1.3580   -5.2490 C   0  0  0  0  0  0  0  0  0  0  0  0
  -19.8800   -0.9330   -5.6230 C   0  0  0  0  0  0  0  0  0  0  0  0
  -19.9330    0.5900   -5.7330 C   0  0  0  0  0  0  0  0  0  0  0  0
  -20.3090    1.0730   -7.1360 C   0  0  0  0  0  0  0  0  0  0  0  0
  -19.2970    2.0160   -7.7400 C   0  0  0  0  0  0  0  0  0  0  0  0
  -18.4650    2.7870   -6.9180 C   0  0  0  0  0  0  0  0  0  0  0  0
  -17.5360    3.6660   -7.4750 C   0  0  0  0  0  0  0  0  0  0  0  0
  -17.4300    3.7840   -8.8610 C   0  0  0  0  0  0  0  0  0  0  0  0
  -18.2520    3.0210   -9.6870 C   0  0  0  0  0  0  0  0  0  0  0  0
  -19.1810    2.1410   -9.1310 C   0  0  0  0  0  0  0  0  0  0  0  0
  -15.6290    0.3590   -5.5400 C   0  0  0  0  0  0  0  0  0  0  0  0
  -16.1590    1.3710   -5.9920 O   0  0  0  0  0  0  0  0  0  0  0  0
  -14.2950    0.1180   -5.7240 N   0  0  0  0  0  0  0  0  0  0  0  0
  -13.5940   -0.9670   -5.2720 C   0  0  0  0  0  0  0  0  0  0  0  0
  -12.3930   -1.0650   -5.5120 O   0  0  0  0  0  0  0  0  0  0  0  0
  -13.6897   -3.0808   -2.9501 H   0  0  0  0  0  0  0  0  0  0  0  0
  -14.2213   -3.9839   -4.4090 H   0  0  0  0  0  0  0  0  0  0  0  0
  -12.6427   -3.1268   -4.4090 H   0  0  0  0  0  0  0  0  0  0  0  0
  -16.2153   -2.5183   -3.7674 H   0  0  0  0  0  0  0  0  0  0  0  0
  -18.0975   -2.3274   -5.5945 H   0  0  0  0  0  0  0  0  0  0  0  0
  -20.1533   -1.3807   -6.5899 H   0  0  0  0  0  0  0  0  0  0  0  0
  -20.5871   -1.2708   -4.8510 H   0  0  0  0  0  0  0  0  0  0  0  0
  -20.6804    0.9676   -5.0197 H   0  0  0  0  0  0  0  0  0  0  0  0
  -18.9257    0.9723   -5.5111 H   0  0  0  0  0  0  0  0  0  0  0  0
  -20.4025    0.1956   -7.7928 H   0  0  0  0  0  0  0  0  0  0  0  0
  -21.2540    1.6284   -7.0443 H   0  0  0  0  0  0  0  0  0  0  0  0
  -18.5449    2.6986   -5.8245 H   0  0  0  0  0  0  0  0  0  0  0  0
  -16.8866    4.2665   -6.8210 H   0  0  0  0  0  0  0  0  0  0  0  0
  -16.6987    4.4782   -9.3007 H   0  0  0  0  0  0  0  0  0  0  0  0
  -18.1685    3.1124  -10.7800 H   0  0  0  0  0  0  0  0  0  0  0  0
  -19.8269    1.5411   -9.7890 H   0  0  0  0  0  0  0  0  0  0  0  0
  -13.7770    0.7990   -6.2560 H   0  0  0  0  0  0  0  0  0  0  0  0
  1  2  1  0
  2  3  1  0
  3  4  2  0
  4  5  1  0
  5  6  2  0
  6  7  1  0
  7  8  1  0
  8  9  1  0
  9 10  1  0
 10 11  2  0
 11 12  1  0
 12 13  2  0
 13 14  1  0
 14 15  2  0
  4 16  1  0
 16 17  2  0
 16 18  1  0
 18 19  1  0
 19 20  2  0
 19  2  1  0
 15 10  1  0
  1 21  1  0
  1 22  1  0
  1 23  1  0
  3 24  1  0
  6 25  1  0
  7 26  1  0
  7 27  1  0
  8 28  1  0
  8 29  1  0
  9 30  1  0
  9 31  1  0
 11 32  1  0
 12 33  1  0
 13 34  1  0
 14 35  1  0
 15 36  1  0
 18 37  1  0
M  END
>  <meeko>  (12) 
{"is_sidechain": [true], "free_energy": -2.92, "intermolecular_energy": 0.0, "internal_energy": -2.92, "cluster_size": 20, "cluster_id": 1, "rank_in_cluster": 14}

$$$$
3zd5_PBI_URA
     RDKit          3D

 37 38  0  0  0  0  0  0  0  0999 V2000
  -13.6820   -3.0950   -4.0500 C   0  0  0  0  0  0  0  0  0  0  0  0
  -14.3330   -1.8960   -4.5550 N   0  0  0  0  0  0  0  0  0  0  0  0
  -15.6850   -1.7330   -4.3250 C   0  0  0  0  0  0  0  0  0  0  0  0
  -16.3870   -0.6710   -4.7440 C   0  0  0  0  0  0  0  0  0  0  0  0
  -17.7430   -0.5870   -4.5210 N   0  0  0  0  0  0  0  0  0  0  0  0
  -18.4870   -1.3560   -5.2470 C   0  0  0  0  0  0  0  0  0  0  0  0
  -19.9150   -0.9800   -5.5300 C   0  0  0  0  0  0  0  0  0  0  0  0
  -19.9480    0.3050   -6.3550 C   0  0  0  0  0  0  0  0  0  0  0  0
  -21.1790    0.4030   -7.2590 C   0  0  0  0  0  0  0  0  0  0  0  0
  -20.8900    1.0170   -8.6070 C   0  0  0  0  0  0  0  0  0  0  0  0
  -21.6890    0.7070   -9.7160 C   0  0  0  0  0  0  0  0  0  0  0  0
  -21.4160    1.2660  -10.9640 C   0  0  0  0  0  0  0  0  0  0  0  0
  -20.3410    2.1410  -11.1170 C   0  0  0  0  0  0  0  0  0  0  0  0
  -19.5410    2.4570  -10.0210 C   0  0  0  0  0  0  0  0  0  0  0  0
  -19.8130    1.8990   -8.7720 C   0  0  0  0  0  0  0  0  0  0  0  0
  -15.6290    0.3590   -5.5400 C   0  0  0  0  0  0  0  0  0  0  0  0
  -16.1600    1.3710   -5.9920 O   0  0  0  0  0  0  0  0  0  0  0  0
  -14.2950    0.1170   -5.7250 N   0  0  0  0  0  0  0  0  0  0  0  0
  -13.5940   -0.9670   -5.2740 C   0  0  0  0  0  0  0  0  0  0  0  0
  -12.3930   -1.0660   -5.5140 O   0  0  0  0  0  0  0  0  0  0  0  0
  -13.6897   -3.0808   -2.9501 H   0  0  0  0  0  0  0  0  0  0  0  0
  -14.2213   -3.9839   -4.4090 H   0  0  0  0  0  0  0  0  0  0  0  0
  -12.6427   -3.1268   -4.4090 H   0  0  0  0  0  0  0  0  0  0  0  0
  -16.2152   -2.5186   -3.7668 H   0  0  0  0  0  0  0  0  0  0  0  0
  -18.0738   -2.2885   -5.6590 H   0  0  0  0  0  0  0  0  0  0  0  0
  -20.4030   -1.7897   -6.0924 H   0  0  0  0  0  0  0  0  0  0  0  0
  -20.4477   -0.8207   -4.5809 H   0  0  0  0  0  0  0  0  0  0  0  0
  -19.9489    1.1634   -5.6671 H   0  0  0  0  0  0  0  0  0  0  0  0
  -19.0611    0.3015   -7.0056 H   0  0  0  0  0  0  0  0  0  0  0  0
  -21.5767   -0.6104   -7.4163 H   0  0  0  0  0  0  0  0  0  0  0  0
  -21.9004    1.0609   -6.7523 H   0  0  0  0  0  0  0  0  0  0  0  0
  -22.5382    0.0173   -9.6010 H   0  0  0  0  0  0  0  0  0  0  0  0
  -22.0490    1.0166  -11.8283 H   0  0  0  0  0  0  0  0  0  0  0  0
  -20.1250    2.5811  -12.1017 H   0  0  0  0  0  0  0  0  0  0  0  0
  -18.6934    3.1478  -10.1409 H   0  0  0  0  0  0  0  0  0  0  0  0
  -19.1780    2.1528   -7.9104 H   0  0  0  0  0  0  0  0  0  0  0  0
  -13.7770    0.7980   -6.2570 H   0  0  0  0  0  0  0  0  0  0  0  0
  1  2  1  0
  2  3  1  0
  3  4  2  0
  4  5  1  0
  5  6  2  0
  6  7  1  0
  7  8  1  0
  8  9  1  0
  9 10  1  0
 10 11  2  0
 11 12  1  0
 12 13  2  0
 13 14  1  0
 14 15  2  0
  4 16  1  0
 16 17  2  0
 16 18  1  0
 18 19  1  0
 19 20  2  0
 19  2  1  0
 15 10  1  0
  1 21  1  0
  1 22  1  0
  1 23  1  0
  3 24  1  0
  6 25  1  0
  7 26  1  0
  7 27  1  0
  8 28  1  0
  8 29  1  0
  9 30  1  0
  9 31  1  0
 11 32  1  0
 12 33  1  0
 13 34  1  0
 14 35  1  0
 15 36  1  0
 18 37  1  0
M  END
>  <meeko>  (13) 
{"is_sidechain": [true], "free_energy": -2.93, "intermolecular_energy": 0.0, "internal_energy": -2.93, "cluster_size": 20, "cluster_id": 1, "rank_in_cluster": 5}

$$$$
3zd5_PBI_URA
     RDKit          3D

 37 38  0  0  0  0  0  0  0  0999 V2000
  -13.6820   -3.0950   -4.0500 C   0  0  0  0  0  0  0  0  0  0  0  0
  -14.3330   -1.8960   -4.5550 N   0  0  0  0  0  0  0  0  0  0  0  0
  -15.6850   -1.7330   -4.3260 C   0  0  0  0  0  0  0  0  0  0  0  0
  -16.3870   -0.6710   -4.7450 C   0  0  0  0  0  0  0  0  0  0  0  0
  -17.7430   -0.5870   -4.5210 N   0  0  0  0  0  0  0  0  0  0  0  0
  -18.4870   -1.3530   -5.2510 C   0  0  0  0  0  0  0  0  0  0  0  0
  -19.8900   -0.9380   -5.5980 C   0  0  0  0  0  0  0  0  0  0  0  0
  -19.9530    0.5830   -5.7240 C   0  0  0  0  0  0  0  0  0  0  0  0
  -20.3090    1.0510   -7.1370 C   0  0  0  0  0  0  0  0  0  0  0  0
  -19.3080    2.0160   -7.7230 C   0  0  0  0  0  0  0  0  0  0  0  0
  -19.1800    2.1510   -9.1120 C   0  0  0  0  0  0  0  0  0  0  0  0
  -18.2470    3.0350   -9.6550 C   0  0  0  0  0  0  0  0  0  0  0  0
  -17.4330    3.7940   -8.8150 C   0  0  0  0  0  0  0  0  0  0  0  0
  -17.5540    3.6680   -7.4320 C   0  0  0  0  0  0  0  0  0  0  0  0
  -18.4860    2.7840   -6.8880 C   0  0  0  0  0  0  0  0  0  0  0  0
  -15.6290    0.3590   -5.5400 C   0  0  0  0  0  0  0  0  0  0  0  0
  -16.1600    1.3710   -5.9920 O   0  0  0  0  0  0  0  0  0  0  0  0
  -14.2950    0.1180   -5.7250 N   0  0  0  0  0  0  0  0  0  0  0  0
  -13.5940   -0.9670   -5.2730 C   0  0  0  0  0  0  0  0  0  0  0  0
  -12.3930   -1.0660   -5.5130 O   0  0  0  0  0  0  0  0  0  0  0  0
  -13.6897   -3.0808   -2.9501 H   0  0  0  0  0  0  0  0  0  0  0  0
  -14.2213   -3.9839   -4.4090 H   0  0  0  0  0  0  0  0  0  0  0  0
  -12.6427   -3.1268   -4.4090 H   0  0  0  0  0  0  0  0  0  0  0  0
  -16.2156   -2.5189   -3.7684 H   0  0  0  0  0  0  0  0  0  0  0  0
  -18.0920   -2.3113   -5.6192 H   0  0  0  0  0  0  0  0  0  0  0  0
  -20.1830   -1.3978   -6.5534 H   0  0  0  0  0  0  0  0  0  0  0  0
  -20.5777   -1.2698   -4.8061 H   0  0  0  0  0  0  0  0  0  0  0  0
  -20.7151    0.9614   -5.0268 H   0  0  0  0  0  0  0  0  0  0  0  0
  -18.9521    0.9746   -5.4897 H   0  0  0  0  0  0  0  0  0  0  0  0
  -20.3662    0.1688   -7.7916 H   0  0  0  0  0  0  0  0  0  0  0  0
  -21.2691    1.5835   -7.0685 H   0  0  0  0  0  0  0  0  0  0  0  0
  -19.8201    1.5554   -9.7794 H   0  0  0  0  0  0  0  0  0  0  0  0
  -18.1535    3.1332  -10.7466 H   0  0  0  0  0  0  0  0  0  0  0  0
  -16.6970    4.4907   -9.2427 H   0  0  0  0  0  0  0  0  0  0  0  0
  -16.9132    4.2669   -6.7682 H   0  0  0  0  0  0  0  0  0  0  0  0
  -18.5761    2.6893   -5.7958 H   0  0  0  0  0  0  0  0  0  0  0  0
  -13.7770    0.7980   -6.2570 H   0  0  0  0  0  0  0  0  0  0  0  0
  1  2  1  0
  2  3  1  0
  3  4  2  0
  4  5  1  0
  5  6  2  0
  6  7  1  0
  7  8  1  0
  8  9  1  0
  9 10  1  0
 10 11  2  0
 11 12  1  0
 12 13  2  0
 13 14  1  0
 14 15  2  0
  4 16  1  0
 16 17  2  0
 16 18  1  0
 18 19  1  0
 19 20  2  0
 19  2  1  0
 15 10  1  0
  1 21  1  0
  1 22  1  0
  1 23  1  0
  3 24  1  0
  6 25  1  0
  7 26  1  0
  7 27  1  0
  8 28  1  0
  8 29  1  0
  9 30  1  0
  9 31  1  0
 11 32  1  0
 12 33  1  0
 13 34  1  0
 14 35  1  0
 15 36  1  0
 18 37  1  0
M  END
>  <meeko>  (14) 
{"is_sidechain": [true], "free_energy": -2.92, "intermolecular_energy": 0.0, "internal_energy": -2.92, "cluster_size": 20, "cluster_id": 1, "rank_in_cluster": 11}

$$$$
3zd5_PBI_URA
     RDKit          3D

 37 38  0  0  0  0  0  0  0  0999 V2000
  -13.6820   -3.0950   -4.0500 C   0  0  0  0  0  0  0  0  0  0  0  0
  -14.3330   -1.8960   -4.5550 N   0  0  0  0  0  0  0  0  0  0  0  0
  -15.6850   -1.7330   -4.3260 C   0  0  0  0  0  0  0  0  0  0  0  0
  -16.3870   -0.6720   -4.7450 C   0  0  0  0  0  0  0  0  0  0  0  0
  -17.7430   -0.5880   -4.5220 N   0  0  0  0  0  0  0  0  0  0  0  0
  -18.4860   -1.3570   -5.2480 C   0  0  0  0  0  0  0  0  0  0  0  0
  -19.8820   -0.9350   -5.6160 C   0  0  0  0  0  0  0  0  0  0  0  0
  -19.9410    0.5880   -5.7190 C   0  0  0  0  0  0  0  0  0  0  0  0
  -20.3090    1.0770   -7.1230 C   0  0  0  0  0  0  0  0  0  0  0  0
  -19.2930    2.0200   -7.7180 C   0  0  0  0  0  0  0  0  0  0  0  0
  -19.1560    2.1320   -9.1080 C   0  0  0  0  0  0  0  0  0  0  0  0
  -18.2100    2.9960   -9.6590 C   0  0  0  0  0  0  0  0  0  0  0  0
  -17.3900    3.7570   -8.8270 C   0  0  0  0  0  0  0  0  0  0  0  0
  -17.5190    3.6550   -7.4440 C   0  0  0  0  0  0  0  0  0  0  0  0
  -18.4650    2.7910   -6.8900 C   0  0  0  0  0  0  0  0  0  0  0  0
  -15.6290    0.3590   -5.5400 C   0  0  0  0  0  0  0  0  0  0  0  0
  -16.1590    1.3710   -5.9920 O   0  0  0  0  0  0  0  0  0  0  0  0
  -14.2950    0.1180   -5.7240 N   0  0  0  0  0  0  0  0  0  0  0  0
  -13.5940   -0.9670   -5.2730 C   0  0  0  0  0  0  0  0  0  0  0  0
  -12.3930   -1.0650   -5.5120 O   0  0  0  0  0  0  0  0  0  0  0  0
  -13.6897   -3.0808   -2.9501 H   0  0  0  0  0  0  0  0  0  0  0  0
  -14.2213   -3.9839   -4.4090 H   0  0  0  0  0  0  0  0  0  0  0  0
  -12.6427   -3.1268   -4.4090 H   0  0  0  0  0  0  0  0  0  0  0  0
  -16.2153   -2.5188   -3.7680 H   0  0  0  0  0  0  0  0  0  0  0  0
  -18.0958   -2.3240   -5.5982 H   0  0  0  0  0  0  0  0  0  0  0  0
  -20.1565   -1.3792   -6.5841 H   0  0  0  0  0  0  0  0  0  0  0  0
  -20.5855   -1.2786   -4.8433 H   0  0  0  0  0  0  0  0  0  0  0  0
  -20.6953    0.9587   -5.0094 H   0  0  0  0  0  0  0  0  0  0  0  0
  -18.9370    0.9734   -5.4880 H   0  0  0  0  0  0  0  0  0  0  0  0
  -20.4005    0.2021   -7.7834 H   0  0  0  0  0  0  0  0  0  0  0  0
  -21.2536    1.6337   -7.0342 H   0  0  0  0  0  0  0  0  0  0  0  0
  -19.7996    1.5338   -9.7698 H   0  0  0  0  0  0  0  0  0  0  0  0
  -18.1107    3.0772  -10.7515 H   0  0  0  0  0  0  0  0  0  0  0  0
  -16.6425    4.4367   -9.2621 H   0  0  0  0  0  0  0  0  0  0  0  0
  -16.8739    4.2567   -6.7868 H   0  0  0  0  0  0  0  0  0  0  0  0
  -18.5615    2.7146   -5.7969 H   0  0  0  0  0  0  0  0  0  0  0  0
  -13.7770    0.7980   -6.2560 H   0  0  0  0  0  0  0  0  0  0  0  0
  1  2  1  0
  2  3  1  0
  3  4  2  0
  4  5  1  0
  5  6  2  0
  6  7  1  0
  7  8  1  0
  8  9  1  0
  9 10  1  0
 10 11  2  0
 11 12  1  0
 12 13  2  0
 13 14  1  0
 14 15  2  0
  4 16  1  0
 16 17  2  0
 16 18  1  0
 18 19  1  0
 19 20  2  0
 19  2  1  0
 15 10  1  0
  1 21  1  0
  1 22  1  0
  1 23  1  0
  3 24  1  0
  6 25  1  0
  7 26  1  0
  7 27  1  0
  8 28  1  0
  8 29  1  0
  9 30  1  0
  9 31  1  0
 11 32  1  0
 12 33  1  0
 13 34  1  0
 14 35  1  0
 15 36  1  0
 18 37  1  0
M  END
>  <meeko>  (15) 
{"is_sidechain": [true], "free_energy": -2.92, "intermolecular_energy": 0.0, "internal_energy": -2.92, "cluster_size": 20, "cluster_id": 1, "rank_in_cluster": 9}

$$$$
3zd5_PBI_URA
     RDKit          3D

 37 38  0  0  0  0  0  0  0  0999 V2000
  -13.6820   -3.0950   -4.0500 C   0  0  0  0  0  0  0  0  0  0  0  0
  -14.3330   -1.8960   -4.5550 N   0  0  0  0  0  0  0  0  0  0  0  0
  -15.6850   -1.7330   -4.3260 C   0  0  0  0  0  0  0  0  0  0  0  0
  -16.3870   -0.6710   -4.7450 C   0  0  0  0  0  0  0  0  0  0  0  0
  -17.7430   -0.5870   -4.5210 N   0  0  0  0  0  0  0  0  0  0  0  0
  -18.5010   -1.1170   -5.4250 C   0  0  0  0  0  0  0  0  0  0  0  0
  -19.9880   -0.8950   -5.3910 C   0  0  0  0  0  0  0  0  0  0  0  0
  -20.3820    0.0750   -6.5030 C   0  0  0  0  0  0  0  0  0  0  0  0
  -20.1390    1.5400   -6.1310 C   0  0  0  0  0  0  0  0  0  0  0  0
  -19.2140    2.2580   -7.0830 C   0  0  0  0  0  0  0  0  0  0  0  0
  -19.3100    2.0440   -8.4650 C   0  0  0  0  0  0  0  0  0  0  0  0
  -18.4480    2.6990   -9.3440 C   0  0  0  0  0  0  0  0  0  0  0  0
  -17.4810    3.5750   -8.8520 C   0  0  0  0  0  0  0  0  0  0  0  0
  -17.3790    3.7960   -7.4800 C   0  0  0  0  0  0  0  0  0  0  0  0
  -18.2400    3.1410   -6.5990 C   0  0  0  0  0  0  0  0  0  0  0  0
  -15.6290    0.3590   -5.5400 C   0  0  0  0  0  0  0  0  0  0  0  0
  -16.1600    1.3710   -5.9920 O   0  0  0  0  0  0  0  0  0  0  0  0
  -14.2950    0.1180   -5.7250 N   0  0  0  0  0  0  0  0  0  0  0  0
  -13.5940   -0.9670   -5.2730 C   0  0  0  0  0  0  0  0  0  0  0  0
  -12.3930   -1.0660   -5.5130 O   0  0  0  0  0  0  0  0  0  0  0  0
  -13.6897   -3.0808   -2.9501 H   0  0  0  0  0  0  0  0  0  0  0  0
  -14.2213   -3.9839   -4.4090 H   0  0  0  0  0  0  0  0  0  0  0  0
  -12.6427   -3.1268   -4.4090 H   0  0  0  0  0  0  0  0  0  0  0  0
  -16.2156   -2.5189   -3.7684 H   0  0  0  0  0  0  0  0  0  0  0  0
  -18.0566   -1.7321   -6.2213 H   0  0  0  0  0  0  0  0  0  0  0  0
  -20.5057   -1.8540   -5.5402 H   0  0  0  0  0  0  0  0  0  0  0  0
  -20.2741   -0.4724   -4.4165 H   0  0  0  0  0  0  0  0  0  0  0  0
  -19.7915   -0.1616   -7.4004 H   0  0  0  0  0  0  0  0  0  0  0  0
  -21.4611   -0.0458   -6.6787 H   0  0  0  0  0  0  0  0  0  0  0  0
  -21.1068    2.0628   -6.1253 H   0  0  0  0  0  0  0  0  0  0  0  0
  -19.6550    1.5467   -5.1432 H   0  0  0  0  0  0  0  0  0  0  0  0
  -20.0709    1.3543   -8.8591 H   0  0  0  0  0  0  0  0  0  0  0  0
  -18.5310    2.5244  -10.4269 H   0  0  0  0  0  0  0  0  0  0  0  0
  -16.8002    4.0904   -9.5455 H   0  0  0  0  0  0  0  0  0  0  0  0
  -16.6180    4.4884   -7.0907 H   0  0  0  0  0  0  0  0  0  0  0  0
  -18.1535    3.3191   -5.5170 H   0  0  0  0  0  0  0  0  0  0  0  0
  -13.7770    0.7980   -6.2570 H   0  0  0  0  0  0  0  0  0  0  0  0
  1  2  1  0
  2  3  1  0
  3  4  2  0
  4  5  1  0
  5  6  2  0
  6  7  1  0
  7  8  1  0
  8  9  1  0
  9 10  1  0
 10 11  2  0
 11 12  1  0
 12 13  2  0
 13 14  1  0
 14 15  2  0
  4 16  1  0
 16 17  2  0
 16 18  1  0
 18 19  1  0
 19 20  2  0
 19  2  1  0
 15 10  1  0
  1 21  1  0
  1 22  1  0
  1 23  1  0
  3 24  1  0
  6 25  1  0
  7 26  1  0
  7 27  1  0
  8 28  1  0
  8 29  1  0
  9 30  1  0
  9 31  1  0
 11 32  1  0
 12 33  1  0
 13 34  1  0
 14 35  1  0
 15 36  1  0
 18 37  1  0
M  END
>  <meeko>  (16) 
{"is_sidechain": [true], "free_energy": -2.89, "intermolecular_energy": 0.0, "internal_energy": -2.89, "cluster_size": 20, "cluster_id": 1, "rank_in_cluster": 19}

$$$$
3zd5_PBI_URA
     RDKit          3D

 37 38  0  0  0  0  0  0  0  0999 V2000
  -13.6820   -3.0950   -4.0500 C   0  0  0  0  0  0  0  0  0  0  0  0
  -14.3330   -1.8960   -4.5550 N   0  0  0  0  0  0  0  0  0  0  0  0
  -15.6850   -1.7330   -4.3260 C   0  0  0  0  0  0  0  0  0  0  0  0
  -16.3870   -0.6720   -4.7450 C   0  0  0  0  0  0  0  0  0  0  0  0
  -17.7430   -0.5880   -4.5220 N   0  0  0  0  0  0  0  0  0  0  0  0
  -18.5010   -1.1020   -5.4350 C   0  0  0  0  0  0  0  0  0  0  0  0
  -19.9140   -0.6170   -5.6080 C   0  0  0  0  0  0  0  0  0  0  0  0
  -19.9260    0.5860   -6.5490 C   0  0  0  0  0  0  0  0  0  0  0  0
  -21.0470    0.5180   -7.5900 C   0  0  0  0  0  0  0  0  0  0  0  0
  -20.7050    1.2030   -8.8910 C   0  0  0  0  0  0  0  0  0  0  0  0
  -21.5080    1.0190  -10.0240 C   0  0  0  0  0  0  0  0  0  0  0  0
  -21.1860    1.6430  -11.2290 C   0  0  0  0  0  0  0  0  0  0  0  0
  -20.0570    2.4570  -11.3150 C   0  0  0  0  0  0  0  0  0  0  0  0
  -19.2530    2.6480  -10.1940 C   0  0  0  0  0  0  0  0  0  0  0  0
  -19.5730    2.0250   -8.9870 C   0  0  0  0  0  0  0  0  0  0  0  0
  -15.6290    0.3590   -5.5400 C   0  0  0  0  0  0  0  0  0  0  0  0
  -16.1590    1.3710   -5.9920 O   0  0  0  0  0  0  0  0  0  0  0  0
  -14.2950    0.1180   -5.7240 N   0  0  0  0  0  0  0  0  0  0  0  0
  -13.5940   -0.9670   -5.2730 C   0  0  0  0  0  0  0  0  0  0  0  0
  -12.3930   -1.0650   -5.5120 O   0  0  0  0  0  0  0  0  0  0  0  0
  -13.6897   -3.0808   -2.9501 H   0  0  0  0  0  0  0  0  0  0  0  0
  -14.2213   -3.9839   -4.4090 H   0  0  0  0  0  0  0  0  0  0  0  0
  -12.6427   -3.1268   -4.4090 H   0  0  0  0  0  0  0  0  0  0  0  0
  -16.2153   -2.5188   -3.7680 H   0  0  0  0  0  0  0  0  0  0  0  0
  -18.1108   -1.8969   -6.0875 H   0  0  0  0  0  0  0  0  0  0  0  0
  -20.5289   -1.4230   -6.0349 H   0  0  0  0  0  0  0  0  0  0  0  0
  -20.3237   -0.3228   -4.6304 H   0  0  0  0  0  0  0  0  0  0  0  0
  -20.0586    1.4989   -5.9498 H   0  0  0  0  0  0  0  0  0  0  0  0
  -18.9701    0.5884   -7.0934 H   0  0  0  0  0  0  0  0  0  0  0  0
  -21.2629   -0.5399   -7.8001 H   0  0  0  0  0  0  0  0  0  0  0  0
  -21.9141    1.0453   -7.1657 H   0  0  0  0  0  0  0  0  0  0  0  0
  -22.3994    0.3774   -9.9628 H   0  0  0  0  0  0  0  0  0  0  0  0
  -21.8235    1.4929  -12.1128 H   0  0  0  0  0  0  0  0  0  0  0  0
  -19.8020    2.9472  -12.2662 H   0  0  0  0  0  0  0  0  0  0  0  0
  -18.3634    3.2916  -10.2602 H   0  0  0  0  0  0  0  0  0  0  0  0
  -18.9334    2.1797   -8.1055 H   0  0  0  0  0  0  0  0  0  0  0  0
  -13.7770    0.7980   -6.2560 H   0  0  0  0  0  0  0  0  0  0  0  0
  1  2  1  0
  2  3  1  0
  3  4  2  0
  4  5  1  0
  5  6  2  0
  6  7  1  0
  7  8  1  0
  8  9  1  0
  9 10  1  0
 10 11  2  0
 11 12  1  0
 12 13  2  0
 13 14  1  0
 14 15  2  0
  4 16  1  0
 16 17  2  0
 16 18  1  0
 18 19  1  0
 19 20  2  0
 19  2  1  0
 15 10  1  0
  1 21  1  0
  1 22  1  0
  1 23  1  0
  3 24  1  0
  6 25  1  0
  7 26  1  0
  7 27  1  0
  8 28  1  0
  8 29  1  0
  9 30  1  0
  9 31  1  0
 11 32  1  0
 12 33  1  0
 13 34  1  0
 14 35  1  0
 15 36  1  0
 18 37  1  0
M  END
>  <meeko>  (17) 
{"is_sidechain": [true], "free_energy": -2.9, "intermolecular_energy": 0.0, "internal_energy": -2.9, "cluster_size": 20, "cluster_id": 1, "rank_in_cluster": 18}

$$$$
3zd5_PBI_URA
     RDKit          3D

 37 38  0  0  0  0  0  0  0  0999 V2000
  -13.6820   -3.0950   -4.0500 C   0  0  0  0  0  0  0  0  0  0  0  0
  -14.3330   -1.8960   -4.5550 N   0  0  0  0  0  0  0  0  0  0  0  0
  -15.6850   -1.7330   -4.3260 C   0  0  0  0  0  0  0  0  0  0  0  0
  -16.3870   -0.6720   -4.7450 C   0  0  0  0  0  0  0  0  0  0  0  0
  -17.7430   -0.5880   -4.5220 N   0  0  0  0  0  0  0  0  0  0  0  0
  -18.4860   -1.3580   -5.2480 C   0  0  0  0  0  0  0  0  0  0  0  0
  -19.9150   -0.9830   -5.5330 C   0  0  0  0  0  0  0  0  0  0  0  0
  -19.9480    0.3050   -6.3530 C   0  0  0  0  0  0  0  0  0  0  0  0
  -21.1660    0.3950   -7.2750 C   0  0  0  0  0  0  0  0  0  0  0  0
  -20.8560    0.9860   -8.6280 C   0  0  0  0  0  0  0  0  0  0  0  0
  -19.7480    1.8270   -8.8000 C   0  0  0  0  0  0  0  0  0  0  0  0
  -19.4670    2.3820  -10.0480 C   0  0  0  0  0  0  0  0  0  0  0  0
  -20.2910    2.1040  -11.1380 C   0  0  0  0  0  0  0  0  0  0  0  0
  -21.3940    1.2680  -10.9790 C   0  0  0  0  0  0  0  0  0  0  0  0
  -21.6770    0.7120   -9.7310 C   0  0  0  0  0  0  0  0  0  0  0  0
  -15.6290    0.3590   -5.5400 C   0  0  0  0  0  0  0  0  0  0  0  0
  -16.1590    1.3710   -5.9920 O   0  0  0  0  0  0  0  0  0  0  0  0
  -14.2950    0.1180   -5.7240 N   0  0  0  0  0  0  0  0  0  0  0  0
  -13.5940   -0.9670   -5.2730 C   0  0  0  0  0  0  0  0  0  0  0  0
  -12.3930   -1.0650   -5.5120 O   0  0  0  0  0  0  0  0  0  0  0  0
  -13.6897   -3.0808   -2.9501 H   0  0  0  0  0  0  0  0  0  0  0  0
  -14.2213   -3.9839   -4.4090 H   0  0  0  0  0  0  0  0  0  0  0  0
  -12.6427   -3.1268   -4.4090 H   0  0  0  0  0  0  0  0  0  0  0  0
  -16.2153   -2.5188   -3.7680 H   0  0  0  0  0  0  0  0  0  0  0  0
  -18.0718   -2.2906   -5.6587 H   0  0  0  0  0  0  0  0  0  0  0  0
  -20.4004   -1.7913   -6.0996 H   0  0  0  0  0  0  0  0  0  0  0  0
  -20.4503   -0.8284   -4.5845 H   0  0  0  0  0  0  0  0  0  0  0  0
  -19.9675    1.1604   -5.6617 H   0  0  0  0  0  0  0  0  0  0  0  0
  -19.0514    0.3128   -6.9902 H   0  0  0  0  0  0  0  0  0  0  0  0
  -21.5669   -0.6188   -7.4218 H   0  0  0  0  0  0  0  0  0  0  0  0
  -21.8905    1.0646   -6.7885 H   0  0  0  0  0  0  0  0  0  0  0  0
  -19.0949    2.0510   -7.9437 H   0  0  0  0  0  0  0  0  0  0  0  0
  -18.5943    3.0399  -10.1728 H   0  0  0  0  0  0  0  0  0  0  0  0
  -20.0705    2.5440  -12.1217 H   0  0  0  0  0  0  0  0  0  0  0  0
  -22.0430    1.0458  -11.8389 H   0  0  0  0  0  0  0  0  0  0  0  0
  -22.5504    0.0540   -9.6116 H   0  0  0  0  0  0  0  0  0  0  0  0
  -13.7770    0.7980   -6.2560 H   0  0  0  0  0  0  0  0  0  0  0  0
  1  2  1  0
  2  3  1  0
  3  4  2  0
  4  5  1  0
  5  6  2  0
  6  7  1  0
  7  8  1  0
  8  9  1  0
  9 10  1  0
 10 11  2  0
 11 12  1  0
 12 13  2  0
 13 14  1  0
 14 15  2  0
  4 16  1  0
 16 17  2  0
 16 18  1  0
 18 19  1  0
 19 20  2  0
 19  2  1  0
 15 10  1  0
  1 21  1  0
  1 22  1  0
  1 23  1  0
  3 24  1  0
  6 25  1  0
  7 26  1  0
  7 27  1  0
  8 28  1  0
  8 29  1  0
  9 30  1  0
  9 31  1  0
 11 32  1  0
 12 33  1  0
 13 34  1  0
 14 35  1  0
 15 36  1  0
 18 37  1  0
M  END
>  <meeko>  (18) 
{"is_sidechain": [true], "free_energy": -2.94, "intermolecular_energy": 0.0, "internal_energy": -2.94, "cluster_size": 20, "cluster_id": 1, "rank_in_cluster": 2}

$$$$
3zd5_PBI_URA
     RDKit          3D

 37 38  0  0  0  0  0  0  0  0999 V2000
  -13.6820   -3.0950   -4.0500 C   0  0  0  0  0  0  0  0  0  0  0  0
  -14.3330   -1.8960   -4.5550 N   0  0  0  0  0  0  0  0  0  0  0  0
  -15.6880   -1.7400   -4.3400 C   0  0  0  0  0  0  0  0  0  0  0  0
  -16.3910   -0.6800   -4.7600 C   0  0  0  0  0  0  0  0  0  0  0  0
  -17.7490   -0.6030   -4.5510 N   0  0  0  0  0  0  0  0  0  0  0  0
  -18.4930   -0.7310   -5.6020 C   0  0  0  0  0  0  0  0  0  0  0  0
  -19.9380   -0.3150   -5.5620 C   0  0  0  0  0  0  0  0  0  0  0  0
  -20.1540    0.8580   -6.5160 C   0  0  0  0  0  0  0  0  0  0  0  0
  -19.2000    2.0260   -6.2520 C   0  0  0  0  0  0  0  0  0  0  0  0
  -18.5720    2.5870   -7.5040 C   0  0  0  0  0  0  0  0  0  0  0  0
  -19.0150    2.1750   -8.7680 C   0  0  0  0  0  0  0  0  0  0  0  0
  -18.4270    2.6850   -9.9250 C   0  0  0  0  0  0  0  0  0  0  0  0
  -17.3900    3.6130   -9.8320 C   0  0  0  0  0  0  0  0  0  0  0  0
  -16.9440    4.0310   -8.5800 C   0  0  0  0  0  0  0  0  0  0  0  0
  -17.5300    3.5220   -7.4210 C   0  0  0  0  0  0  0  0  0  0  0  0
  -15.6280    0.3580   -5.5410 C   0  0  0  0  0  0  0  0  0  0  0  0
  -16.1590    1.3710   -5.9920 O   0  0  0  0  0  0  0  0  0  0  0  0
  -14.2920    0.1250   -5.7120 N   0  0  0  0  0  0  0  0  0  0  0  0
  -13.5910   -0.9590   -5.2590 C   0  0  0  0  0  0  0  0  0  0  0  0
  -12.3860   -1.0510   -5.4860 O   0  0  0  0  0  0  0  0  0  0  0  0
  -13.6897   -3.0808   -2.9501 H   0  0  0  0  0  0  0  0  0  0  0  0
  -14.2213   -3.9839   -4.4090 H   0  0  0  0  0  0  0  0  0  0  0  0
  -12.6427   -3.1268   -4.4090 H   0  0  0  0  0  0  0  0  0  0  0  0
  -16.2206   -2.5315   -3.7925 H   0  0  0  0  0  0  0  0  0  0  0  0
  -18.0673   -1.1454   -6.5278 H   0  0  0  0  0  0  0  0  0  0  0  0
  -20.5719   -1.1598   -5.8694 H   0  0  0  0  0  0  0  0  0  0  0  0
  -20.2050   -0.0111   -4.5391 H   0  0  0  0  0  0  0  0  0  0  0  0
  -19.9996    0.5051   -7.5464 H   0  0  0  0  0  0  0  0  0  0  0  0
  -21.1782    1.2269   -6.3580 H   0  0  0  0  0  0  0  0  0  0  0  0
  -19.7632    2.8297   -5.7551 H   0  0  0  0  0  0  0  0  0  0  0  0
  -18.3823    1.6398   -5.6258 H   0  0  0  0  0  0  0  0  0  0  0  0
  -19.8328    1.4437   -8.8481 H   0  0  0  0  0  0  0  0  0  0  0  0
  -18.7816    2.3549  -10.9126 H   0  0  0  0  0  0  0  0  0  0  0  0
  -16.9254    4.0139  -10.7449 H   0  0  0  0  0  0  0  0  0  0  0  0
  -16.1276    4.7644   -8.5053 H   0  0  0  0  0  0  0  0  0  0  0  0
  -17.1726    3.8561   -6.4358 H   0  0  0  0  0  0  0  0  0  0  0  0
  -13.7710    0.8110   -6.2340 H   0  0  0  0  0  0  0  0  0  0  0  0
  1  2  1  0
  2  3  1  0
  3  4  2  0
  4  5  1  0
  5  6  2  0
  6  7  1  0
  7  8  1  0
  8  9  1  0
  9 10  1  0
 10 11  2  0
 11 12  1  0
 12 13  2  0
 13 14  1  0
 14 15  2  0
  4 16  1  0
 16 17  2  0
 16 18  1  0
 18 19  1  0
 19 20  2  0
 19  2  1  0
 15 10  1  0
  1 21  1  0
  1 22  1  0
  1 23  1  0
  3 24  1  0
  6 25  1  0
  7 26  1  0
  7 27  1  0
  8 28  1  0
  8 29  1  0
  9 30  1  0
  9 31  1  0
 11 32  1  0
 12 33  1  0
 13 34  1  0
 14 35  1  0
 15 36  1  0
 18 37  1  0
M  END
>  <meeko>  (19) 
{"is_sidechain": [true], "free_energy": -2.88, "intermolecular_energy": 0.0, "internal_energy": -2.88, "cluster_size": 20, "cluster_id": 1, "rank_in_cluster": 20}

$$$$
3zd5_PBI_URA
     RDKit          3D

 37 38  0  0  0  0  0  0  0  0999 V2000
  -13.6820   -3.0950   -4.0500 C   0  0  0  0  0  0  0  0  0  0  0  0
  -14.3330   -1.8960   -4.5550 N   0  0  0  0  0  0  0  0  0  0  0  0
  -15.6850   -1.7330   -4.3260 C   0  0  0  0  0  0  0  0  0  0  0  0
  -16.3870   -0.6720   -4.7450 C   0  0  0  0  0  0  0  0  0  0  0  0
  -17.7430   -0.5880   -4.5220 N   0  0  0  0  0  0  0  0  0  0  0  0
  -18.4860   -1.3580   -5.2480 C   0  0  0  0  0  0  0  0  0  0  0  0
  -19.9090   -0.9730   -5.5500 C   0  0  0  0  0  0  0  0  0  0  0  0
  -19.9240    0.3430   -6.3260 C   0  0  0  0  0  0  0  0  0  0  0  0
  -21.1630    0.4990   -7.2120 C   0  0  0  0  0  0  0  0  0  0  0  0
  -20.8590    1.0540   -8.5810 C   0  0  0  0  0  0  0  0  0  0  0  0
  -21.6970    0.7660   -9.6670 C   0  0  0  0  0  0  0  0  0  0  0  0
  -21.4110    1.2710  -10.9360 C   0  0  0  0  0  0  0  0  0  0  0  0
  -20.2840    2.0680  -11.1330 C   0  0  0  0  0  0  0  0  0  0  0  0
  -19.4460    2.3620  -10.0590 C   0  0  0  0  0  0  0  0  0  0  0  0
  -19.7300    1.8580   -8.7900 C   0  0  0  0  0  0  0  0  0  0  0  0
  -15.6290    0.3590   -5.5400 C   0  0  0  0  0  0  0  0  0  0  0  0
  -16.1590    1.3710   -5.9920 O   0  0  0  0  0  0  0  0  0  0  0  0
  -14.2950    0.1180   -5.7240 N   0  0  0  0  0  0  0  0  0  0  0  0
  -13.5940   -0.9670   -5.2730 C   0  0  0  0  0  0  0  0  0  0  0  0
  -12.3930   -1.0650   -5.5120 O   0  0  0  0  0  0  0  0  0  0  0  0
  -13.6897   -3.0808   -2.9501 H   0  0  0  0  0  0  0  0  0  0  0  0
  -14.2213   -3.9839   -4.4090 H   0  0  0  0  0  0  0  0  0  0  0  0
  -12.6427   -3.1268   -4.4090 H   0  0  0  0  0  0  0  0  0  0  0  0
  -16.2153   -2.5188   -3.7680 H   0  0  0  0  0  0  0  0  0  0  0  0
  -18.0763   -2.2980   -5.6463 H   0  0  0  0  0  0  0  0  0  0  0  0
  -20.3822   -1.7610   -6.1543 H   0  0  0  0  0  0  0  0  0  0  0  0
  -20.4648   -0.8512   -4.6086 H   0  0  0  0  0  0  0  0  0  0  0  0
  -19.9001    1.1748   -5.6066 H   0  0  0  0  0  0  0  0  0  0  0  0
  -19.0440    0.3467   -6.9860 H   0  0  0  0  0  0  0  0  0  0  0  0
  -21.6308   -0.4892   -7.3332 H   0  0  0  0  0  0  0  0  0  0  0  0
  -21.8289    1.2181   -6.7125 H   0  0  0  0  0  0  0  0  0  0  0  0
  -22.5870    0.1370   -9.5178 H   0  0  0  0  0  0  0  0  0  0  0  0
  -22.0753    1.0401  -11.7818 H   0  0  0  0  0  0  0  0  0  0  0  0
  -20.0569    2.4638  -12.1339 H   0  0  0  0  0  0  0  0  0  0  0  0
  -18.5583    2.9932  -10.2126 H   0  0  0  0  0  0  0  0  0  0  0  0
  -19.0633    2.0931   -7.9472 H   0  0  0  0  0  0  0  0  0  0  0  0
  -13.7770    0.7980   -6.2560 H   0  0  0  0  0  0  0  0  0  0  0  0
  1  2  1  0
  2  3  1  0
  3  4  2  0
  4  5  1  0
  5  6  2  0
  6  7  1  0
  7  8  1  0
  8  9  1  0
  9 10  1  0
 10 11  2  0
 11 12  1  0
 12 13  2  0
 13 14  1  0
 14 15  2  0
  4 16  1  0
 16 17  2  0
 16 18  1  0
 18 19  1  0
 19 20  2  0
 19  2  1  0
 15 10  1  0
  1 21  1  0
  1 22  1  0
  1 23  1  0
  3 24  1  0
  6 25  1  0
  7 26  1  0
  7 27  1  0
  8 28  1  0
  8 29  1  0
  9 30  1  0
  9 31  1  0
 11 32  1  0
 12 33  1  0
 13 34  1  0
 14 35  1  0
 15 36  1  0
 18 37  1  0
M  END
>  <meeko>  (20) 
{"is_sidechain": [true], "free_energy": -2.94, "intermolecular_energy": 0.0, "internal_energy": -2.94, "cluster_size": 20, "cluster_id": 1, "rank_in_cluster": 1}

$$$$
