3zd5_PBI_URA
     RDKit          3D

 37 38  0  0  0  0  0  0  0  0999 V2000
  -13.6820   -3.0950   -4.0500 C   0  0  0  0  0  0  0  0  0  0  0  0
  -14.3330   -1.8960   -4.5550 N   0  0  0  0  0  0  0  0  0  0  0  0
  -15.6850   -1.7330   -4.3260 C   0  0  0  0  0  0  0  0  0  0  0  0
  -16.3870   -0.6720   -4.7450 C   0  0  0  0  0  0  0  0  0  0  0  0
  -17.7430   -0.5880   -4.5220 N   0  0  0  0  0  0  0  0  0  0  0  0
  -18.4860   -1.3580   -5.2480 C   0  0  0  0  0  0  0  0  0  0  0  0
  -19.9090   -0.9730   -5.5500 C   0  0  0  0  0  0  0  0  0  0  0  0
  -19.9240    0.3430   -6.3260 C   0  0  0  0  0  0  0  0  0  0  0  0
  -21.1630    0.4990   -7.2120 C   0  0  0  0  0  0  0  0  0  0  0  0
  -20.8590    1.0540   -8.5810 C   0  0  0  0  0  0  0  0  0  0  0  0
  -21.6970    0.7660   -9.6670 C   0  0  0  0  0  0  0  0  0  0  0  0
  -21.4110    1.2710  -10.9360 C   0  0  0  0  0  0  0  0  0  0  0  0
  -20.2840    2.0680  -11.1330 C   0  0  0  0  0  0  0  0  0  0  0  0
  -19.4460    2.3620  -10.0590 C   0  0  0  0  0  0  0  0  0  0  0  0
  -19.7300    1.8580   -8.7900 C   0  0  0  0  0  0  0  0  0  0  0  0
  -15.6290    0.3590   -5.5400 C   0  0  0  0  0  0  0  0  0  0  0  0
  -16.1590    1.3710   -5.9920 O   0  0  0  0  0  0  0  0  0  0  0  0
  -14.2950    0.1180   -5.7240 N   0  0  0  0  0  0  0  0  0  0  0  0
  -13.5940   -0.9670   -5.2730 C   0  0  0  0  0  0  0  0  0  0  0  0
  -12.3930   -1.0650   -5.5120 O   0  0  0  0  0  0  0  0  0  0  0  0
  -13.6897   -3.0808   -2.9501 H   0  0  0  0  0  0  0  0  0  0  0  0
  -14.2213   -3.9839   -4.4090 H   0  0  0  0  0  0  0  0  0  0  0  0
  -12.6427   -3.1268   -4.4090 H   0  0  0  0  0  0  0  0  0  0  0  0
  -16.2153   -2.5188   -3.7680 H   0  0  0  0  0  0  0  0  0  0  0  0
  -18.0763   -2.2980   -5.6463 H   0  0  0  0  0  0  0  0  0  0  0  0
  -20.3822   -1.7610   -6.1543 H   0  0  0  0  0  0  0  0  0  0  0  0
  -20.4648   -0.8512   -4.6086 H   0  0  0  0  0  0  0  0  0  0  0  0
  -19.9001    1.1748   -5.6066 H   0  0  0  0  0  0  0  0  0  0  0  0
  -19.0440    0.3467   -6.9860 H   0  0  0  0  0  0  0  0  0  0  0  0
  -21.6308   -0.4892   -7.3332 H   0  0  0  0  0  0  0  0  0  0  0  0
  -21.8289    1.2181   -6.7125 H   0  0  0  0  0  0  0  0  0  0  0  0
  -22.5870    0.1370   -9.5178 H   0  0  0  0  0  0  0  0  0  0  0  0
  -22.0753    1.0401  -11.7818 H   0  0  0  0  0  0  0  0  0  0  0  0
  -20.0569    2.4638  -12.1339 H   0  0  0  0  0  0  0  0  0  0  0  0
  -18.5583    2.9932  -10.2126 H   0  0  0  0  0  0  0  0  0  0  0  0
  -19.0633    2.0931   -7.9472 H   0  0  0  0  0  0  0  0  0  0  0  0
  -13.7770    0.7980   -6.2560 H   0  0  0  0  0  0  0  0  0  0  0  0
  1  2  1  0
  2  3  1  0
  3  4  2  0
  4  5  1  0
  5  6  2  0
  6  7  1  0
  7  8  1  0
  8  9  1  0
  9 10  1  0
 10 11  2  0
 11 12  1  0
 12 13  2  0
 13 14  1  0
 14 15  2  0
  4 16  1  0
 16 17  2  0
 16 18  1  0
 18 19  1  0
 19 20  2  0
 19  2  1  0
 15 10  1  0
  1 21  1  0
  1 22  1  0
  1 23  1  0
  3 24  1  0
  6 25  1  0
  7 26  1  0
  7 27  1  0
  8 28  1  0
  8 29  1  0
  9 30  1  0
  9 31  1  0
 11 32  1  0
 12 33  1  0
 13 34  1  0
 14 35  1  0
 15 36  1  0
 18 37  1  0
M  END
>  <meeko>  (1) 
{"is_sidechain": [true], "free_energy": -2.94, "intermolecular_energy": 0.0, "internal_energy": -2.94, "cluster_size": 20, "cluster_id": 1, "rank_in_cluster": 1}

$$$$
